202
sI_Ethane_Reference
C	0.00000	5.24500	0.00000
C	0.00000	6.78500	0.00000
H	0.00000	4.87785	-1.03692
H	-0.95263	4.87785	0.55000
H	0.95263	4.87785	0.55000
H	0.00000	7.15215	1.03692
H	-0.95263	7.15215	-0.55000
H	0.95263	7.15215	-0.55000
C	6.01500	-0.77000	6.01500
C	6.01500	0.77000	6.01500
H	6.01500	-1.13715	4.97808
H	5.06237	-1.13715	6.56500
H	6.96763	-1.13715	6.56500
H	6.01500	1.13715	7.05192
H	5.06237	1.13715	5.46500
H	6.96763	1.13715	5.46500
C 3.6175506 0.2899579 0.1796276
C 2.7645915 1.2122793 1.0557302
C 9.5119057 0.2905883 0.027171
C 8.6703825 1.2135217 0.9136232
C 0.5707346 3.4677725 6.0707297
C -0.3673683 4.2767778 6.9714552
C 0.5778317 9.365015 6.2143622
C -0.3570922 10.1745663 7.1178908
C 6.3195839 6.1018257 3.174057
C 5.632515 7.1886926 4.0059776
C 6.3452897 6.2914353 9.0513525
C 5.6644001 7.3796797 9.886548
H 3.4282522 0.4686769 -0.888013
H 3.4004083 -0.7676839 0.3844967
H 4.6880236 0.450559 0.3629264
H 2.9523018 1.0334735 2.1234937
H 1.6942542 1.051284 0.8726162
H 2.983356 2.2696033 0.8512258
H 9.3068257 0.4653213 -1.0381523
H 9.2993441 -0.7667226 0.2385946
H 10.5845957 0.4550704 0.192809
H 8.8772154 1.0389224 1.9786272
H 7.597672 1.0492884 0.7479924
H 8.8813296 2.2709499 0.7017957
H 0.3863694 3.6817835 5.0089111
H 0.4321441 2.3894599 6.2225137
H 1.6237029 3.7031183 6.2800408
H -0.1871059 4.0564675 8.0330029
H 10.3513508 3.8900352 6.627677
H -0.2226287 5.3551378 6.8264265
H 0.396877 9.5880156 5.1535225
H 0.4302189 8.2867375 6.357131
H 1.6319226 9.591012 6.4271379
H -0.1724677 9.9573432 8.1790457
H 10.3610411 9.7853174 6.7786579
H -0.2156381 11.252841 6.9685308
H 6.2214861 6.3032823 2.0994608
H 5.8791728 5.1138034 3.3671742
H 7.3917275 6.0400438 3.4070218
H 5.7326503 6.9869762 5.0803432
H 4.5601478 7.2508154 3.7745116
H 6.0733027 8.1767197 3.812403
H 6.2478814 6.4979549 7.9776368
H 5.897636 5.3056779 9.2405977
H 7.4168983 6.2211914 9.2839565
H 5.759841 7.1735706 10.9605122
H 4.5929327 7.449275 9.6526299
H 6.1114979 8.3655319 9.6976729
H 11.1758595 0.7196986 4.0154548
H 0.1788549 1.6487006 2.9915196
H 0.9701072 0.9634578 8.8647852
H 0.194764 0.1920551 10.0187702
H 11.1373062 3.5277822 2.1630552
H 0.1565075 3.0508695 1.0487322
H 0.1068339 2.436213 10.5163689
H 11.0591183 3.6314936 10.6378203
H 0.1050361 11.2034931 2.6717468
H 0.9242936 9.8503218 2.4204085
H 0.8467574 9.9542828 10.8956232
H 0.1888968 10.408041 0.3447988
H 5.2658911 4.2893472 0.5260273
H 5.917049 3.3076768 11.5337076
H 6.8516336 9.0108862 0.7391261
H 6.0671897 10.1731463 1.5269728
H 6.0348654 2.6872118 1.9971062
H 5.2553058 2.4518271 3.3706944
H 5.1838107 10.9306126 3.5207436
H 6.1174483 0.3815239 2.7332871
H 6.8000689 2.5503154 9.5397835
H 6.0279384 1.3011414 10.1500187
H 5.9491868 10.7938481 11.0633602
H 6.7284565 11.0292997 9.6896668
H 3.8693028 6.2878194 0.6481555
H 3.2730961 5.0368476 1.42326
H 4.5921946 8.582429 0.7437005
H 3.110584 8.5219155 11.7254896
H 1.6427861 0.813885 4.5755053
H 3.0013864 0.0053706 4.80546
H 2.3801849 0.8728988 6.8816462
H 2.9495144 1.7079118 8.1218443
H 2.9005628 3.9737314 3.3564868
H 1.5533993 4.0417924 2.4971493
H 2.764581 4.9794302 11.0342865
H 1.4733352 4.1580539 10.5539618
H 2.8116305 8.5842486 2.0948136
H 1.9896208 8.0868235 3.3797403
H 2.768883 9.5812235 9.781456
H 1.9136554 8.2329378 9.8012514
H 3.3909142 2.1902993 4.6282983
H 4.171711 3.5081718 5.1199727
H 4.1107755 9.9477616 5.2428022
H 3.2586024 9.8729068 3.889351
H 4.6126604 2.7768607 9.1956616
H 3.2661452 3.6525529 9.2528916
H 3.2588146 11.3327236 8.5065928
H 4.5586334 10.839347 9.3163214
H 7.5249529 4.7181812 0.521215
H 8.8735714 4.9595108 1.334098
H 8.2479582 7.013248 0.6162223
H 8.8442154 8.2642183 -0.1587705
H 9.7659226 0.810395 5.998724
H 9.1965408 -0.0247549 4.7587662
H 10.5026255 0.8691422 8.3051033
H 9.1437006 1.6771906 8.0750504
H 9.2154036 3.9005458 3.2776406
H 10.0700951 5.2488999 3.2577238
H 9.1714726 4.8973576 10.9643336
H 9.9928942 5.3952141 9.6792717
H 9.2193613 8.5019865 2.0250216
H 10.5104952 9.3235922 2.5049367
H 9.0832291 9.5079022 9.7028618
H 10.4308853 9.4398623 10.561719
H 8.7257719 2.1489551 4.5530496
H 7.4256468 2.6415696 3.7436514
H 7.3717337 10.7046185 3.8655788
H 8.7179909 9.8285914 3.8073454
H 7.872179 3.5328572 7.816617
H 8.724453 3.6078966 9.1696539
H 8.5928459 11.2910919 8.4308682
H 7.8117347 9.9733058 7.9395968
H 3.6189881 7.5593567 6.584189
H 2.4969313 6.7566362 5.7762447
H 8.3640556 5.922049 6.4752493
H 9.4859228 6.724659 7.2832732
H 1.7310274 6.0539265 9.3555718
H 1.982283 6.8490458 8.0094404
H 10.2026672 7.5849147 9.3029471
H 11.4411183 6.7793885 8.6777382
H 1.7805491 5.8969688 3.7562173
H 0.5420721 6.7021733 4.381578
H 10.252408 7.4281335 3.7038648
H 10.0005913 6.6324964 5.0499959
H 4.1110234 5.3200374 6.4844919
H 4.3556719 3.9778136 7.2879954
H 6.4131909 4.5163012 6.4191232
H 7.6519518 3.8875004 5.6210184
H 5.5700031 8.9650898 6.6401692
H 4.3314982 9.5937624 7.4383297
H 7.8723336 8.1609278 6.5750766
H 7.6280489 9.5035362 5.771708
O 0.2027612 0.8261987 3.5533788
O 0.1711392 1.0146221 9.4570074
O 0.1673123 3.1429153 2.0390854
O 0.094816 3.2735472 11.0562468
O 0.1166585 10.3658867 2.1322353
O 0.0447718 10.4966688 11.1496058
O 6.0741649 3.7090478 0.5454718
O 6.0433302 9.5912342 0.7200895
O 6.0525379 2.1592348 2.8418828
O 5.9923674 11.188057 2.9876822
O 5.9921146 2.2931666 10.0738153
O 5.9313394 11.3217449 10.2185927
O 3.7997072 5.2952819 0.6110748
O 3.7388685 8.0667553 0.7557081
O 2.4882343 0.8098947 5.1043963
O 2.4440658 0.8797802 7.875124
O 2.3440337 4.5825763 2.7885676
O 2.2665897 4.6717739 10.2220812
O 2.2769106 8.904791 2.8792942
O 2.1784363 9.0177116 10.3635626
O 3.919421 2.978299 4.3085466
O 3.8201428 10.4843273 4.4496374
O 3.8250304 3.0775778 8.6544075
O 3.7744327 10.5202847 8.7807379
O 8.3782549 5.2340021 0.5089041
O 8.317687 8.0057726 0.6534647
O 9.7020388 0.8034678 5.0052505
O 9.6572094 0.8728938 7.7761255
O 9.8057547 4.4639836 2.6954725
O 9.7058449 4.5770626 10.1795445
O 9.7173624 8.8098698 2.8371525
O 9.6398859 8.8992662 10.2708492
O 8.2098532 2.9612162 4.2788839
O 8.15975 10.4037676 4.4062667
O 8.1630478 2.9962512 8.6095963
O 8.0641174 10.5033369 8.7508574
O 3.0583937 6.7363625 6.5987973
O 8.9245234 6.7451091 6.4606829
O 1.4514249 6.8732964 8.8528786
O 10.4498959 6.776937 8.7674103
O 1.5332437 6.7048736 4.2917681
O 10.531559 6.6085739 4.2066188
O 4.6309204 4.468956 6.4608703
O 7.4046021 4.4297066 6.4239931
O 4.5785456 9.0515118 6.6353426
O 7.3522134 9.0119495 6.5984731
