24
sI: 46 water molecules, 24 O atoms, lattice constant a = 12.03
 O    0.000000    0.000000    3.006068
 O   -0.000000   -0.000000   -3.006069
 O    0.000000    2.320779    1.421994
 O    0.000000    2.320779   -1.422006
 O   -0.000000   -2.320779    1.421994
 O   -0.000000   -2.320779   -1.422006
 O    6.015000    3.006068    0.000000
 O    6.015000   -3.006069    0.000000
 O    6.015000    1.421994    2.320779
 O    6.015000   -1.422006    2.320779
 O    6.015000    1.421994   -2.320779
 O    6.015000   -1.422006   -2.320779
 O    3.694677    4.592849    0.000000
 O    3.694677   -4.592849    0.000000
 O    2.320322    0.000000    4.592849
 O    2.320322   -0.000000   -4.592849
 O    2.263372    3.712651    2.209694
 O    2.263372    3.712651   -2.209695
 O    2.263372   -3.712650    2.209694
 O    2.263372   -3.712650   -2.209695
 O    3.751628    2.209694    3.712651
 O    3.751628   -2.209695    3.712651
 O    3.751628    2.209694   -3.712650
 O    3.751628   -2.209695   -3.712650
