138
sI: 46 water molecules, lattice constant a = 12.03
O	0.0000000000	0.0000000000	3.0060563092
O	0.0000000000	0.0000000000	9.0239429426
O	0.0000000000	2.3208274883	1.4219459324
O	0.0000000000	2.3208274883	10.6080541615
O	0.0000000000	9.7091722447	1.4219459324
O	0.0000000000	9.7091722447	10.6080541615
O	6.0149998665	3.0060563092	0.0000000000
O	6.0149998665	9.0239429426	0.0000000000
O	6.0149998665	1.4219459324	2.3208274883
O	6.0149998665	10.6080541615	2.3208274883
O	6.0149998665	1.4219459324	9.7091722447
O	6.0149998665	10.6080541615	9.7091722447
O	3.6946535060	4.5928134905	0.0000000000
O	3.6946535060	7.4371862425	0.0000000000
O	2.3203463605	0.0000000000	4.5928134905
O	2.3203463605	0.0000000000	7.4371862425
O	2.2633242580	3.7126986980	2.2096703028
O	2.2633242580	3.7126986980	9.8203296708
O	2.2633242580	8.3173017447	2.2096703028
O	2.2633242580	8.3173017447	9.8203296708
O	3.7516756085	2.2096703028	3.7126986980
O	3.7516756085	9.8203296708	3.7126986980
O	3.7516756085	2.2096703028	8.3173017447
O	3.7516756085	9.8203296708	8.3173017447
O	8.3353462270	4.5928134905	0.0000000000
O	8.3353462270	7.4371862425	0.0000000000
O	9.7096538537	0.0000000000	4.5928134905
O	9.7096538537	0.0000000000	7.4371862425
O	9.7666759441	3.7126986980	2.2096703028
O	9.7666759441	3.7126986980	9.8203296708
O	9.7666759441	8.3173017447	2.2096703028
O	9.7666759441	8.3173017447	9.8203296708
O	8.2783241245	2.2096703028	3.7126986980
O	8.2783241245	9.8203296708	3.7126986980
O	8.2783241245	2.2096703028	8.3173017447
O	8.2783241245	9.8203296708	8.3173017447
O	3.0060563092	6.0149998665	6.0149998665
O	9.0239429426	6.0149998665	6.0149998665
O	1.4219459324	6.0149998665	8.3358278240
O	10.6080541615	6.0149998665	8.3358278240
O	1.4219459324	6.0149998665	3.6941723782
O	10.6080541615	6.0149998665	3.6941723782
O	4.5928134905	3.6946535060	6.0149998665
O	7.4371862425	3.6946535060	6.0149998665
O	4.5928134905	8.3353462270	6.0149998665
O	7.4371862425	8.3353462270	6.0149998665
H	11.2310876793	0.0293531993	3.5323688938
H	12.0006465938	0.7993934702	2.4804656449
H	0.7989122221	12.0006465938	8.4976310678
H	0.0293531993	11.2306060823	9.5495338475
H	11.2443208715	2.8039522175	1.6780645906
H	12.0158042852	2.3294889919	0.4649594777
H	12.0284357127	1.5308175141	10.0675458886
H	11.2478084526	2.8001027138	10.3347320503
H	0.0015639000	10.4991817497	1.9624538444
H	0.7821906187	9.2298965500	1.6952675624
H	0.7856792826	9.2260475155	10.3519353830
H	0.0141953997	9.7005109817	11.5650405922
H	5.2160873436	3.5323688938	12.0006465938
H	5.9856467273	2.4804656449	11.2306060823
H	6.8139123894	8.4976310678	0.0293531993
H	6.0443530057	9.5495338475	0.7993934702
H	6.0134358462	1.9624538444	1.5308175141
H	5.2328095485	1.6952675624	2.8001027138
H	5.2293205238	10.3519353830	2.8039522175
H	6.0008044187	11.5650405922	2.3294889919
H	6.8006792092	1.6780645906	9.2260475155
H	6.0291953143	0.4649594777	9.7005109817
H	6.0165638868	10.0675458886	10.4991817497
H	6.7971906657	10.3347320503	9.2298965500
H	3.6767287222	5.5494384798	0.0277892994
H	3.1957695494	4.3209352439	0.7702808949
H	4.4853854125	7.9764914553	0.0016842000
H	3.1997394613	7.7392592470	11.2685003289
H	1.5296144540	0.0016842000	4.0535082777
H	2.8152604052	11.2685003289	4.2907400168
H	2.3382711443	0.0277892994	6.4805607840
H	2.8192303171	0.7702808949	7.7090649582
H	2.7814562262	3.1246721788	2.7593209786
H	1.4968929269	3.1958894764	1.9614914685
H	2.7209453637	3.9940803076	10.6125049607
H	1.4953290270	3.2404007882	10.1417713117
H	2.7525842148	7.9864759461	1.4564720436
H	1.9954160437	7.5313811283	2.6859381246
H	2.8073208339	8.8443355518	9.2350692695
H	2.0035963112	7.5627799088	9.2917308810
H	3.2624154111	1.4564720436	4.0435237869
H	4.0194635348	2.6859381246	4.4984979678
H	4.0114030862	9.2917308810	4.4672203054
H	3.2076792732	9.2350692695	3.1855440135
H	4.5181069396	1.9614914685	8.8341102566
H	3.2335436403	2.7593209786	8.9053277948
H	3.2940547434	10.6125049607	8.0359201472
H	4.5196709598	10.1417713117	8.7895984636
H	7.5446143205	4.0535082777	12.0283155451
H	8.8302602717	4.2907400168	0.7614989831
H	8.3532705296	6.4805607840	12.0022106141
H	8.8342304242	7.7090649582	11.2597188982
H	9.6917285887	12.0022106141	5.5494384798
H	9.2107686941	11.2597188982	4.3209352439
H	10.5003852790	12.0283155451	7.9764914553
H	9.2147388466	0.7614989831	7.7392592470
H	9.2226791397	3.1856641812	2.7949297417
H	10.0264034218	4.4672203054	2.7382686114
H	9.2774152776	4.0435237869	10.5735273405
H	10.0345830878	4.4986186047	9.3440618490
H	9.3090543693	8.0359201472	1.4174948926
H	10.5346708263	8.7895984636	1.8882286498
H	9.2485437353	8.9053277948	9.2706785258
H	10.5331068061	8.8341102566	10.0685081442
H	8.7359456993	1.4174948926	3.9940803076
H	7.5103287732	1.8882286498	3.2404007882
H	7.5118927934	10.0685081442	3.1958894764
H	8.7964563333	9.2706785258	3.1246721788
H	8.0185956965	2.7382686114	7.5627799088
H	8.8223209410	2.7949297417	8.8444557195
H	8.7675838528	10.5735273405	7.9864759461
H	8.0105361982	9.3440618490	7.5315017652
H	3.5323688938	6.8139123894	5.9856467273
H	2.4804656449	6.0443530057	5.2156062158
H	8.4976310678	5.2160873436	6.0443530057
H	9.5495338475	5.9856467273	6.8143935172
H	1.7068164343	5.2447190317	8.8274936725
H	1.9642583083	6.0101876260	7.5470199596
H	10.3474845839	6.7891306862	8.8349523565
H	11.5649204245	6.0329246503	8.3473768283
H	1.6825158589	5.2408690468	3.1950478577
H	0.4650798137	5.9970750827	3.6826236265
H	10.3231840085	6.7852807013	3.2025060605
H	10.0657415450	6.0198121070	4.4829792922
H	4.0500197462	4.4829792922	6.0196914702
H	4.3081836728	3.2027466244	6.7851600644
H	6.4801998118	3.6831047543	5.9970750827
H	7.6976356525	3.1954083486	5.2409896837
H	5.5497999212	8.3468952193	6.0329246503
H	4.3323640805	8.8345909152	6.7890100493
H	7.9799795176	7.5470199596	6.0103082628
H	7.7218160602	8.8272533372	5.2448391874
