510
sI: 510 water molecules, lattice constant a = 12.03
H 14.8195594361 27.7344138957 22.3449018276
O 14.876396488 11.4686150402 19.2979180284
H 12.5177120891 13.5488058285 12.7092875353
H 10.6361607173 23.7455672397 19.9561862142
H 25.5543780277 11.159082475 16.5202613804
H 24.9085088936 21.0134337944 22.3991163395
H 19.2141534213 25.4875263511 15.4612973709
H 18.3568050132 9.3440011057 22.5589102292
H 16.1079606132 25.9012993681 16.694232258
O 12.2135397843 9.3275073633 25.3380985619
O 17.864726078 26.6120697062 24.2854750144
O 26.8166859924 17.7566893833 18.351942476
H 9.4838347554 20.1832487615 21.5821941224
O 23.7913643924 21.3539745953 13.4234087792
O 19.325413459 27.4932753822 18.0755268309
H 16.2663304372 14.5650402754 16.705737703
H 17.8435319993 21.9027763833 10.8358591283
H 7.7658363491 25.7060134584 15.3806880146
H 20.0689102586 20.4909120359 19.7992063498
H 14.9781067649 20.3225659054 21.47882322
H 10.3816187675 28.3605163562 21.4288475564
H 23.3603116234 14.506872344 25.7716721743
H 9.6848767445 15.2490907509 26.5401860329
O 26.4786102619 20.3217961975 22.2239699829
H 22.6920413777 20.7070900193 25.7981738804
H 15.7173079473 13.2423520952 16.2146724861
O 18.2446219503 14.335997173 11.9919604398
O 20.2571718987 13.6502973233 20.6625777938
H 10.7989326614 20.1720330167 22.3320428009
O 12.5821463483 11.3990114474 15.4061923448
H 15.411360594 10.8770394803 16.54697681
H 18.9568423959 13.0790640457 21.6406118618
O 17.9393846164 25.2169190178 26.7948731286
H 14.1644245491 19.0463900787 21.5138738637
H 10.7175999408 18.3158272498 20.9560913139
H 11.783978056 25.4581674896 10.0876489961
H 12.0698318606 23.0119255788 9.9712409642
O 23.8932166732 11.5249136808 21.2316876858
H 23.3209765494 11.1527048946 15.8989317286
O 11.7814574872 8.9555184936 10.9249818015
H 14.1158947241 17.8740148707 19.6822283886
H 21.1292177081 27.6305033187 22.6669474265
H 12.943084703 23.2825329121 20.7439351822
H 15.6301885687 18.5340944406 18.1354050138
H 14.5415868467 22.983556342 16.4868849036
H 24.4201575602 20.7355692145 13.7953944212
H 16.390157818 16.3427358286 18.3226979857
H 9.8454121275 28.4763024277 26.8543594852
O 20.1752356616 28.0932077715 24.0173589628
H 19.6057291124 26.9231416874 17.3595533172
O 9.7448023806 27.7311151472 26.2620249797
H 9.2200625537 22.7567124052 16.5855895109
H 24.2200740974 13.8935250442 24.6870257318
H 13.8933391477 16.6833865878 15.6953245344
H 13.3056916032 11.3730612927 20.5189200236
H 19.5818369601 9.5105879037 15.2411266103
H 8.1427856409 14.545797576 17.3708094182
H 17.3524825923 22.2239645264 26.955771256
O 8.193552027 16.486121429 23.8646535671
O 8.4796543384 25.9535295523 15.9684630868
H 20.4344992402 19.0245083805 11.2458519214
H 13.73922944 18.9698591141 9.4837021839
O 20.2831586082 9.1295824548 20.1894653456
H 15.6209583167 15.6981603766 13.1130823488
H 8.7767619503 16.3509826998 24.611545738
H 17.946768818 25.3439208341 13.7893033032
H 20.9238801017 15.6717703888 12.9662543476
H 12.1143855771 24.5279204197 26.2930504987
H 21.2935161939 27.8824177439 10.6758515151
O 8.6826843817 16.1178711409 12.4947092046
O 8.6062152939 18.949956665 12.3135785918
O 10.3522594659 11.4793909519 16.9050704285
H 12.0926234829 13.11655982 22.2808916583
O 14.0860029079 27.3221802946 26.1207894085
H 25.8000447351 18.0567655362 19.8054043294
H 23.3692223667 26.6094307074 25.7700692485
H 16.8860708579 25.50424001 21.1061251666
H 17.0040760798 24.9618158024 14.9105676945
O 19.4164024433 19.6485216337 18.3681854572
H 12.2435381033 21.3591426346 11.8906911512
O 14.1235274325 27.6826235446 9.7475793874
H 24.3330026806 12.5026627288 26.440697773
H 10.2555193247 15.9259939379 21.3825764323
H 23.8214692143 13.5213162579 12.8262654964
H 20.4295646055 24.9930439547 16.2164178942
H 24.3332156865 10.0642278561 25.8728702217
H 19.4695118933 27.5265927418 12.0724273138
O 16.1526563335 13.7403531567 20.4357816067
H 20.871551673 19.07959748 23.6461569734
H 24.2086782862 17.3231238754 15.8930899547
H 20.940956068 12.8245106217 16.3568698128
O 22.0336049004 20.1459729037 26.2077748473
H 17.6634355822 12.8723424746 15.0659802537
O 24.1632015446 9.0590991958 22.8065088308
O 8.4386507189 28.7028164897 12.1496170951
H 10.4147056709 16.0078029001 15.021846364
H 14.8033354932 20.0458009084 9.5291540349
O 10.1747191186 19.7932267335 26.6225407973
H 8.8341670176 20.8339818773 15.5553356832
H 19.2738305506 21.2055309139 15.6636222246
O 20.0860217258 21.0448818632 16.1440012696
O 18.4380667319 12.6877225183 14.5348062718
H 11.4335479882 26.3022072661 22.1162177501
O 16.1226225135 9.1145181701 20.1418406397
H 19.8915474161 26.2538256218 19.4465270583
H 8.9644200739 25.1408278863 16.1127264067
O 17.9240836986 26.5042006311 12.2497465253
H 24.0544975767 22.3233668138 25.8731908068
O 12.3008011668 21.3654102567 10.9352405264
H 10.0603349956 28.5681175936 9.3124384698
H 23.9805490576 22.1826202122 13.8637503004
H 15.0744208946 14.822562573 26.7727527529
H 22.9008935799 26.3682921939 10.2664642717
H 16.171826857 27.7181400699 18.1110049214
H 21.7088065325 19.5968412409 25.4942235326
H 26.2807633601 17.6893949144 17.561700068
O 9.237103019 17.3874494706 18.0939782876
O 21.3895108148 19.6348868067 14.2326725731
H 26.6075497824 16.0567343358 22.3982258252
H 21.6719210254 23.4924432734 17.369990145
H 20.8934202701 19.3816528821 13.4542205747
H 15.9608445965 28.9960752291 24.2191851284
O 9.7626238672 23.5448933741 16.5600139396
O 15.6885166612 25.5055595094 15.9302778327
H 21.5511467279 15.5359719099 10.8246386478
H 17.8026703837 24.1907883255 9.9206953713
O 11.673073028 26.0178551476 25.2935728458
H 18.7198024241 15.2857068589 18.2057556451
O 16.2383201724 13.9957862469 15.9367251564
H 13.7691567571 14.8699545928 26.0073378841
O 23.8214337133 23.677173188 21.0230579908
H 13.1321628653 20.7283119679 14.1363189237
O 16.0699390751 15.9726162497 12.3135073506
O 10.9416110569 17.5572250588 20.4171164265
O 23.7113452076 26.017635231 10.6358139913
O 16.1415800311 9.276376762 15.945095991
H 18.0450710019 23.466603077 26.4379549889
O 24.0592192056 11.1874517118 15.290603586
H 18.6622908538 25.3015868954 9.3558599481
H 9.8126802339 14.6197995001 15.0743154678
H 23.5008244598 17.8468551749 20.4138749544
H 24.5130280959 23.4833167359 20.3902941352
H 12.6526867743 17.4397896131 16.1202423476
O 12.3521000674 23.8370525307 26.911494884
H 9.0331144495 22.1655766784 19.8280946343
H 9.3939108003 27.0318904288 26.8135026882
O 14.5306880491 15.4016028887 26.2387291251
O 21.9316461167 19.8758054036 10.1254780445
H 20.8526296564 15.8565003034 24.8718252636
H 21.410065876 14.6905026758 15.0397278916
H 18.2502666044 21.2373088576 24.9494068712
O 21.5743643618 27.4176240838 21.8467481167
H 19.0917460792 22.0169130805 21.4238606762
H 16.5077725292 20.3899703326 18.9686770738
O 21.0429858537 17.5145612452 18.2632472497
O 20.3894840112 16.0782861592 24.0640219132
O 21.9198952958 15.4529534066 21.9969956929
H 21.2426788059 20.2307507395 21.6809699708
O 8.6674899669 21.4209391893 20.305588413
O 24.1808100253 9.2105117508 25.4677574469
O 10.0461346079 27.7644325068 14.4158691792
H 14.1991089961 18.8467058377 14.954808446
H 15.1622147916 20.9863840569 15.6187759234
H 18.7086196187 22.2093400749 9.6318837669
O 10.1398571667 15.8589193856 25.9594638342
H 10.5421896516 18.4943995006 15.3519778329
O 24.4051406502 11.6389404198 26.8470216472
H 10.7947080461 11.5813222798 20.1858320472
H 20.8867105869 22.6101380146 16.4230172165
H 17.9901510025 20.9139215487 12.8315017206
O 23.8082983547 13.4488537498 13.7806118835
H 9.2773966191 15.801081329 22.5313042852
O 26.0704201172 15.6932122539 21.6942564445
H 8.8653723696 14.1682008339 21.0252664663
O 12.3888080696 21.0829274289 13.6484595583
H 19.019111096 25.2426492559 21.3758797646
H 13.0137316318 20.8557536173 22.7703539494
O 9.9745646538 19.9893923095 10.1464229413
H 14.9890765645 24.9630253435 16.2946050515
H 26.5500737131 24.5020802233 19.673358866
H 10.8681595515 20.2583502685 14.277376392
H 11.4501979428 14.1589643381 10.7339486694
H 16.634013976 19.4453187276 24.302857854
H 13.6015211802 26.9760316213 21.8620293425
O 15.8993924187 18.8403282573 24.2005911894
H 15.080953073 27.7903826615 24.4720555749
H 20.6168677194 26.2229273444 20.7749963217
H 22.6115961813 20.1244210804 22.3187563272
H 15.5245376841 14.3248913864 20.8601294907
H 21.2810553537 20.3838126688 9.6407176689
O 14.5526276481 19.6940443627 14.6843770571
O 15.0240095182 11.7518675759 16.5782160523
O 25.9464152315 19.8252245937 14.6041239065
H 22.4794970746 23.4619848291 19.6797705691
H 11.9692576147 9.1101198388 11.8507961097
H 15.5432821959 28.8525796704 12.4430237534
H 11.9711036651 10.4208225662 9.8549041733
H 18.90827707 9.7291849693 21.202656919
H 17.9117648623 25.9569382591 23.5891996775
H 8.2837954909 18.2314892471 24.1794681897
H 15.4758658552 22.0368155296 20.2383011509
H 22.639641947 20.4960800752 10.2991639576
O 25.4000198133 18.1637549451 20.6683839472
O 12.523534248 13.4709553645 13.6633133372
O 21.7180722855 27.226186714 26.1079303817
H 22.1723071874 16.1506387091 9.588426668
H 14.998839331 14.8375168995 14.9232486184
H 21.3594769948 15.6867247152 22.7369062315
H 16.207647335 21.2636988454 16.678060518
H 8.5778855204 16.7038388283 18.2141621003
H 15.0949049539 27.6538144746 13.2515751359
H 16.8294468119 21.6437146697 20.7908474766
O 22.5671489677 17.6360651474 20.404649226
H 12.0700093655 22.5777003212 21.7602613659
H 9.5137265716 28.3326969108 10.7044548351
O 24.042569251 13.5881708937 10.9938719893
H 26.8017400843 10.4261005638 16.9660884698
H 15.0702317802 24.0126559079 20.0158506737
H 13.0567233056 8.9546388274 25.5956353034
O 9.948932954 15.1404519677 10.127935864
H 20.836938228 14.2368148022 21.1484424071
O 19.943627338 25.7895817531 16.0025163544
O 24.1357237944 13.9618091376 25.6380594056
H 22.5814203574 11.5252435557 20.0895852594
H 23.1078642308 14.0400994348 14.0565288405
O 23.8731941265 26.1110997711 13.4441755732
H 10.1448983044 15.9247843968 9.615533924
O 7.7548665496 14.9993754913 18.1191620326
O 16.8745685438 15.5174989184 18.2998651985
O 18.2535326935 22.3253460629 21.7680978919
O 21.8741345464 15.2356758404 14.4043637341
O 21.7795244633 11.461137877 19.5707716163
H 16.0097649322 16.9279338081 12.3203108801
H 17.4351643497 9.7663508688 14.8125042575
O 15.9005994517 16.0168194793 23.9311571766
H 15.3857288942 15.7970128726 24.7075431818
O 26.1518238397 23.9393137334 16.5669243307
O 18.2319836052 14.502583971 24.3714274566
O 14.3749807979 27.444563863 21.548283337
O 13.6204076958 17.6555277634 20.4715446618
H 23.8665199443 26.1189068092 12.4870151609
H 21.8310363697 28.0591207039 26.5658328453
H 25.6630464947 19.1188525869 15.184703623
O 15.4925158098 27.8971521538 12.4155246712
H 7.8038223862 15.7404943154 12.5328588381
H 16.4157185159 26.4849579316 18.9546781887
H 23.7349888531 22.874587684 21.5374903035
H 22.1792298764 18.1514396175 15.152930072
H 22.132333096 20.1334376595 13.8922111381
O 21.7870506688 19.6499510914 22.2126782613
H 14.7616928562 15.577646099 22.4827534445
O 15.3141589401 17.6399136873 18.2647789343
H 17.0727349544 26.9130255254 12.4055509108
O 11.909935495 26.2408505445 10.6241304434
H 20.7955440978 21.8144798824 19.9091314375
O 9.8618490763 15.2858168172 21.9753740052
H 12.0044035743 26.1361702595 12.4741561341
H 14.3171497189 23.3798459921 18.8650924481
H 9.8442405956 19.5143725291 25.7685375639
H 9.4047030949 15.455042614 10.8497511517
O 14.1696076906 15.4739554386 10.2132471359
H 22.0208245515 16.0641015408 14.8608057543
H 10.2136636819 17.6816978346 16.5862306812
H 23.0876641793 26.5978850878 13.6936264446
O 10.786755829 17.6958824531 15.8197115747
H 12.0641517056 24.4020181862 14.5190619786
H 26.659913712 12.4520819189 20.1063269286
H 13.3962190748 27.1499856242 10.0694468834
H 14.6976846086 19.4520261829 25.6654872467
O 23.8610527951 23.6330799167 14.9685223665
O 12.2556794348 13.6685503982 10.8979814073
O 10.0833041227 27.4797505134 21.6555012612
H 12.3354501128 21.9980002559 13.9239134479
O 12.1275919377 13.914856951 22.8080405155
O 21.4566076468 27.4833791367 14.4754980181
H 20.0369593862 17.8680771235 12.1383609941
H 25.2487856842 14.666091937 14.0225111935
H 11.8011250242 11.4196836045 15.9592373584
H 18.4050508304 19.9573944493 11.7338181485
H 9.7902436213 17.3269724153 18.8728221124
O 20.541037649 15.9872407013 12.147622343
H 11.7673636024 25.9070171988 24.3474904317
O 11.9502290951 13.9066100798 25.5448759871
H 9.1551667819 15.6988201263 13.2140310522
H 12.8548292933 20.9888031391 25.6975457622
H 16.475750655 14.9859605808 18.9888383181
O 18.055366283 22.5116153935 26.3731611669
H 18.05891638 13.9331100259 23.6217925016
O 18.1510413952 9.9527301576 14.2050310086
H 12.4255160718 10.7790666506 21.5980096567
H 19.3100060383 27.6849326686 23.9862978233
H 12.1561702179 10.1498853582 25.8244974838
H 11.8981491732 17.561953265 20.3817451977
H 13.3422576015 26.8775090002 14.177318203
O 21.7107945868 11.3593165074 16.7184542475
O 24.2674678914 13.9648879695 22.928402431
H 9.4994551819 20.5950425295 9.577419911
O 8.4437273575 28.2213091706 23.7485304997
O 20.3747866099 21.1358173628 20.4369927061
H 12.1601818275 12.2709806276 26.3532492667
H 14.9616343152 18.9317035901 11.6452654045
H 25.3670039119 23.979998298 16.0203978819
O 24.0234342285 23.7777850165 9.2162985438
O 8.3607260913 13.5554033255 20.490459186
H 14.8075956095 15.5941398413 10.9166109669
H 21.1673457491 24.1874895771 19.4702503598
H 13.2415058507 26.8942226591 25.9797675607
H 19.7294854913 20.0902240545 17.5787979429
O 16.1654721835 25.5936360937 20.4824801776
O 20.4468180766 13.5974073894 16.0835531576
H 22.9963911873 23.6067998872 15.3783370568
O 26.2144830505 11.6483968321 19.8381396359
O 9.7667774806 27.8745007476 9.9030631878
O 22.4936619613 17.4533144819 15.7272761882
H 24.0231147198 21.6847291091 23.4274110357
H 12.294801503 9.3177210762 23.4950545035
H 19.7431888655 13.250818883 15.5349250949
O 17.8931623544 22.4652129982 10.062892698
H 26.2619833474 23.8288056595 18.3483804187
O 15.6417973856 21.6992436023 16.0406659879
O 24.096885734 21.63216905 25.2123223192
O 8.455868689 19.1703130631 24.2511011616
H 8.0697956481 26.2702094059 19.4939736613
H 21.9026418248 28.2251577105 9.3329559198
H 14.5502135822 28.0097494351 10.5394603418
H 21.3472291604 15.062711462 26.9612924448
O 24.2220266507 21.4626133784 10.734482978
O 9.936223607 11.4333184315 19.7891969688
H 10.2634005398 11.6333325474 17.8456316539
O 21.6151549756 23.3630223749 19.2806064301
O 26.264752423 11.1942691254 17.1608261414
O 20.1895070512 25.6565322313 20.1325080497
O 23.7970800484 25.9924547843 22.5854475559
H 15.6354072112 9.9004999735 19.8946694849
H 14.2150134303 11.6743469868 16.07251078
H 9.5747172368 19.6732622473 13.7514386343
H 23.8407817416 12.800099883 10.4894490576
H 18.2346106769 22.6974448909 14.3625808022
H 8.8309364294 26.3195806747 20.8017117513
H 18.3772890725 27.3706718972 18.1229021928
H 16.2825898811 19.3616404747 12.2470393618
O 22.0589170915 15.3162752615 10.043550727
O 13.605213281 17.4339618241 16.2147081067
H 12.0791686156 13.7889547175 24.603709212
H 11.1809230909 23.5509410797 15.4064416888
O 20.2596569665 9.2274453263 15.85486908
O 14.0284913377 27.3561574039 14.6423091606
H 12.2545789048 10.1041427126 14.2173913474
O 11.9859430702 23.5227917593 14.8893022125
H 19.9212972283 18.8361498426 18.4048390266
H 21.8840038159 17.4567231886 16.4651919748
O 19.8897723676 18.8039320658 12.0013998916
H 14.5454564523 26.6757355518 15.0737455386
O 8.2251478897 21.306362659 16.1229138905
O 17.8536142746 24.7424490288 14.528038363
H 23.4089124503 14.2373645936 10.6884968185
H 26.4520910379 23.0338072771 16.4887371734
H 24.1317121848 8.9920246434 23.7608195973
H 21.7124631323 17.4806940942 18.9465210776
H 15.6353362092 26.311113887 20.8294957981
H 24.1126481643 21.4969203625 11.6848042403
H 9.3911417247 12.1452983107 20.1242796973
O 18.3923059825 10.0682963126 21.9340897613
H 24.6725339508 11.6012247289 20.6811717328
H 17.5237392681 14.961110009 12.0683665685
H 17.7315974432 19.8010337715 18.299829578
H 8.839527664 28.1529151189 24.617387512
H 17.1059283606 21.7799529817 14.7822980118
H 23.9086595949 11.9800310121 14.7756013441
O 16.6456582939 26.8865255793 18.1167042131
O 8.4129835181 25.7118412474 20.19160258
H 13.5417020469 14.8405957314 21.9726312211
H 10.0334252609 23.6793723536 17.4681960643
H 21.697801232 28.2547364885 14.9885055079
H 10.9185354269 26.5983249209 25.3931679675
O 12.4912993679 11.5229344318 20.9990853453
H 24.0815848162 23.0167637433 9.7939573732
O 23.7831636685 23.7173079611 26.8869523093
H 26.3320977617 11.6140898479 18.8888157496
O 12.1496380396 25.7542851444 22.437515317
H 21.8819447597 28.2610041106 21.5146575163
H 18.8588952217 20.1590579394 24.0783057629
H 14.0467388359 16.8693260435 20.812576026
O 8.7951159514 13.6113720913 16.0088568163
O 19.6176219371 14.9879398299 18.352441164
O 10.3768261367 15.1804767826 14.5418947658
H 23.4912036971 14.4725653598 22.6919530686
H 9.5469554788 27.6021340818 22.4388332782
H 20.6395528388 27.8777994961 12.9666105533
H 14.6078671563 17.540181525 17.6264582693
O 12.0186749639 21.4427109293 25.592500693
H 8.0940073091 14.0669292557 19.7265760018
O 13.947300621 23.6464948272 16.8383174751
H 21.6190600822 11.3232501907 17.6705565385
O 17.7627672942 20.6351773026 11.9444782162
H 17.486889262 15.1030661517 24.3937259352
H 22.1366997152 16.289955853 21.5863261088
O 12.0387330115 26.0843799085 13.4293217943
H 11.8118108159 14.0407591845 13.9549389669
H 17.9910030257 11.9814604698 22.0334711595
H 23.9879687602 10.6769154062 21.6655818834
H 15.4501631535 19.1396347023 23.4100994373
O 12.1900026416 21.3158190713 22.9318576266
O 21.8298648378 15.5346524105 26.2826492914
H 20.647398553 16.6429219398 18.2714399814
H 12.8866381618 20.6381461762 10.7251503879
H 20.7674273301 9.8933526851 19.8756124785
H 8.8838328737 28.3936137993 12.9385415419
H 26.607975794 19.4225573632 14.0415682
H 16.6816562768 9.3964512065 20.8658644029
H 23.7220665003 24.5384764148 26.3990573234
H 16.8374700309 13.6075235514 21.0912357672
O 21.5490166698 27.4938251736 9.8391955007
H 17.8829025743 25.7779261751 26.0213367692
H 18.26219493 24.0680748823 21.9583829919
H 26.9030243497 20.9562554875 21.6464892563
H 23.8425212891 25.1664481662 22.1039286525
H 15.3412816807 12.2063251575 19.6928076987
O 18.1393970773 12.9235830342 22.1137955512
O 16.7987739744 19.9654214039 18.161657376
H 20.3211801463 17.8339900559 24.3075597696
O 14.2789861769 19.9393612909 26.3749778162
H 23.8916901315 24.4818478993 14.5270053664
O 15.9939314999 21.2764540061 20.5022852161
H 10.8185646974 20.4721091696 26.4207146317
H 10.375299595 28.4716841798 14.9706239803
H 19.8414910494 14.5009345967 17.5593847307
H 19.6061196231 15.5283847884 24.0778070749
H 25.4978959856 16.7039487866 15.3967172724
H 21.146577682 10.6564631656 16.3962305458
H 23.0122601206 26.4241510014 22.2479426284
H 19.927474397 14.1837049517 19.9393376832
H 8.2701631187 20.8733469425 19.6284769442
H 16.1050495337 16.9462968413 24.0339937703
O 12.1279114464 23.3769870767 21.2366389454
O 20.4250204814 18.7766624118 24.4367912078
H 19.8347458652 15.3691651953 11.9592251334
H 20.6036968598 27.6903206244 24.7725507272
O 20.2006188546 28.1386205422 12.1569193125
H 13.6043967587 14.7650543913 10.5203320942
O 15.6750262929 28.1716080269 23.8256134193
H 18.2374862554 10.9058485504 14.2211671281
H 25.4143267039 15.1605743334 22.1436455912
H 18.0934588231 13.8963839595 11.1551975636
H 9.3886921578 24.4670035312 19.4923351149
H 10.7113872712 20.5013580728 10.4798671235
O 26.0957678092 23.7528244863 19.2879798886
H 20.9100702247 26.9641561268 15.065374704
H 14.883319177 11.6553242039 18.3591378317
H 8.6532540782 17.9989274796 12.2154082931
O 25.160033261 17.4202170388 15.9344454397
H 9.5890596284 27.1789046525 15.0195310268
H 20.6785329031 20.6669552462 15.4941039185
H 14.540060305 26.7569947225 26.7458235998
H 18.3393030353 13.2467504265 13.7640839377
H 9.2954311115 12.8309981604 16.2474077925
O 10.0476611495 19.6207021882 22.1131187603
O 14.2804772176 15.3745531512 21.6806137651
H 23.7884178119 25.1418175109 10.2572741639
H 13.7121066995 14.8330086099 14.1255971312
O 14.4401605775 19.7834404463 22.0587261456
O 12.1281599532 11.5072103974 26.9292695498
H 17.0621911665 27.1003944388 24.1017084792
O 14.4318533507 15.4022626384 14.3979876516
O 9.9590152292 23.728193831 19.279858398
H 21.2172246109 12.1569538887 19.9112330513
H 24.8685703032 21.118773829 25.4512295012
H 22.1806499152 18.2301697477 21.0480280123
H 14.9060042963 19.5382334764 13.8085740331
H 26.2618413435 19.5848557881 21.6527584771
H 11.2097143769 26.833855562 10.3515974407
O 18.3992996734 25.0092078222 22.0669188773
H 12.0030545374 24.9023283716 22.0263470449
H 12.1496380396 22.2889498714 26.0201256697
H 24.9532401149 20.8600419903 10.5986617338
H 9.0405341521 19.2935762978 11.5328824972
O 18.1130553581 20.7565712465 24.133161445
O 12.3023987104 9.3492791033 13.6307561336
O 24.0193161161 21.3411094762 22.5340114488
O 12.0407920678 11.23110515 9.3501606564
H 12.2144983104 12.9295207815 10.2911137081
H 11.3105371297 14.3711838234 22.6069980025
O 12.3485854714 9.2914410467 22.5397107404
H 13.2626289274 23.7310527464 16.174741824
O 15.5586541156 18.7477433835 12.3705002672
H 11.3430560176 26.670787429 13.7266110951
H 17.8536497756 26.1304524288 11.3713431995
O 14.1427689578 19.6112457759 10.0686276103
O 25.978188599 15.1814664071 14.3669265121
H 24.2226301672 13.1857235797 22.3742175591
H 8.0186387514 13.2718209149 15.5638490001
H 21.2990898461 26.6538538535 26.7507036183
H 8.9022578767 19.3955076257 23.4348557354
H 11.2684684811 14.5751564374 25.6119139052
H 12.1640514331 21.4354536826 23.8811815129
O 12.1143500761 23.7300631219 9.3400087932
O 10.0114856618 19.9388114995 14.5607024283
H 18.1717029594 21.8967286777 22.6200707527
H 9.7135970286 10.7928114359 16.7128974382
O 17.8429994848 25.142257344 9.8244842041
H 26.3669952145 14.6255173308 15.0422569522
O 21.4034981967 23.4152525591 16.4544701823
O 18.0088245123 21.7728056933 14.4645625022
H 22.0830222497 16.359229571 26.6975933442
O 14.4824777328 23.2877009514 19.8034095774
H 12.4651706545 12.1291344432 14.7983985107
H 25.4308346546 17.2895865992 21.0571824996
O 24.1409779378 26.0693156238 25.6001591161
H 24.124611991 25.9179030688 24.6551453192
H 10.5322848812 16.5034948376 26.5483787647
