212
sI: 212 water molecules, lattice constant a = 12.03
H 15.7275983207 19.0728895887 18.4798230847
O 12.1338057687 14.5474856757 13.844577462
H 15.3253182293 24.6329620664 19.8523902501
H 23.7987508033 18.3266555239 20.4168860944
H 21.508327191 16.2596144992 22.48455373
O 19.3572545727 20.5911615628 18.3804359751
H 14.8789311396 23.8461634833 18.6384912182
H 13.0169449243 21.1029742598 13.8696303251
H 18.3515721871 12.3474892483 21.7384515083
H 11.998808378 18.3528967218 20.3974961102
H 9.0540239004 13.6218274205 16.0210225507
H 17.6515341713 20.4491310792 18.4489998195
O 22.8439913033 18.3949919767 20.4224056094
O 14.4169139 15.844784896 14.437065132
H 10.4089223753 16.938824171 15.2534874074
O 20.3433814284 14.3227954189 16.3476057973
O 21.9307337767 20.2893877871 14.3555985254
O 8.5386928617 22.3835447164 20.234742102
O 18.2328829665 23.2048942101 22.2659952755
H 22.5179349568 18.0767081141 16.5616482851
H 9.9994338586 12.5017656242 19.7929300211
O 10.1326826709 12.1563658571 16.5413981167
H 20.8292364309 19.7020223079 23.3025171687
H 12.1940781962 23.7300461827 21.7631101204
H 9.5150776376 21.3045941302 21.0987612334
H 18.3083216352 23.5553235401 14.1661788087
O 15.7948293765 14.1158179706 16.1677914703
H 11.0517925824 11.4463227778 20.0582968295
H 22.1088746634 16.8455585802 21.2244198004
H 20.724321726 16.3541921498 13.1562509419
O 10.1104150601 24.5466941284 19.0176890616
H 14.025232335 17.4475753949 21.3206887425
H 17.6550670134 22.3044931078 14.7143669953
O 18.3844383242 22.6011279821 14.1701213194
O 10.0472878108 24.5026307836 16.333950374
O 18.3257003636 20.9597410547 11.9142884023
O 20.657840061 19.4553550478 12.1777556374
H 8.3944886703 21.7176743201 19.5622931476
H 8.9870426415 17.2466115545 18.2020911293
H 10.4886075916 16.7013413302 21.2788981295
H 9.5493711857 11.4491655742 16.2659599857
H 21.3461019364 15.5340453777 15.1593330847
O 9.797062671 20.3120208203 14.3378930684
O 20.6725423938 16.8103516397 24.1627371535
H 15.3550083771 19.5280650336 11.3902570538
O 18.0203057905 14.9207667156 12.2938446558
H 13.0523090306 24.0991723662 20.5718626043
O 20.2724034189 16.4999401364 12.325098013
H 12.3003846268 10.9353847874 21.8866182271
H 18.7501766952 20.591926931 24.3535546694
H 10.7883638914 18.9494466203 15.5162736634
H 18.9767424984 22.9365779617 21.7266239763
H 10.9199354958 24.4011648185 19.5072772034
O 18.4026378138 15.17563435 24.0289426781
O 8.5555006256 14.4381473512 15.9837120635
H 9.7875347029 23.6026670346 16.1367531591
O 8.7294306501 22.2705982272 15.819452733
H 10.4487471408 18.2010257891 16.7876975099
H 14.0995647602 11.7439416971 16.1739561233
H 18.2766331121 21.537375423 12.6760173026
O 16.7323885745 20.70749754 18.3810094312
O 11.0470107558 18.2581003945 20.4335880032
H 8.6189133572 19.746194991 18.0103059062
H 9.2649238684 20.1981996245 13.5503944848
O 14.5777117436 16.0620401468 22.0651781189
H 18.1292886167 14.0412492333 13.7816764964
H 20.56452307 18.5031275797 12.1532045483
O 10.2945153875 11.6378835223 19.505090902
O 10.0524978608 16.4285422105 14.5263092369
H 16.5132453082 15.50583609 18.9177284959
H 22.5903760626 20.8174918945 13.9058655822
H 11.3292455861 14.7094157343 22.628025277
O 13.7842139958 18.3191111795 21.006578166
H 19.9868855433 19.8702939893 18.3934462602
H 7.9894964982 22.5173748256 15.2645981193
O 8.9234157983 13.9658057894 20.3772817828
H 12.8917609839 21.744243533 22.7728587822
H 18.3967497437 21.8785109955 25.068941149
H 15.6289999092 22.6185127757 20.5550531725
H 16.5424715475 21.1400399518 19.2135243183
H 16.4772031817 16.769021753 18.0841025375
H 15.0839073522 19.9248538132 13.7641502445
H 15.6760331001 17.5553829829 12.1195140026
H 12.196790277 14.7108371325 12.9035360087
O 19.6307821963 16.0278172512 18.2737373002
H 11.3574726376 15.0343692347 14.1212341872
O 21.3011384914 18.4631097529 18.0976504378
H 21.8793826678 18.3339811917 18.8494513795
H 19.9220810861 21.6337024869 19.8240041733
H 12.5229179941 13.0194825908 14.5881349722
O 13.7926714057 17.9574200021 16.1322730333
H 11.7803431319 12.1394184168 15.5710028795
O 21.9285212898 20.4828072832 21.9443580877
O 12.2170238272 22.3956812704 22.9642139132
H 19.9004914955 14.90677141 19.5196423505
H 13.9528269145 23.7099279309 16.3004031924
H 14.8369295724 15.2594968449 15.0674009043
O 15.8446817039 19.2949557257 12.1790100726
H 18.3593158915 14.7161947104 23.190263138
O 20.0906583195 21.6201445347 15.9172269974
O 16.2670882897 21.8114866026 15.9900917626
H 14.2619327559 19.4973409644 14.9614190496
H 21.5267407923 19.7681719942 13.6618600134
H 16.7518370487 19.5213953958 11.9739278363
H 16.8105393241 13.9839559512 20.9248606723
H 17.5845885977 15.670608945 24.0739948227
H 21.2439349975 19.6579589631 11.4485703705
H 22.7899281135 18.9599430995 15.3625515887
H 19.5856403249 21.0952112387 17.5994604545
H 11.8142798273 24.2390160832 15.4330150064
H 7.7653572936 14.2144411393 15.4919017793
H 14.5811732152 12.0719566706 18.7892026484
H 14.0637010601 17.2943924023 15.4973137712
H 15.4778370895 13.3454201361 16.63913654
H 9.4287192751 14.573508197 20.9173699021
H 12.1204237911 13.4244717447 22.5056282415
H 19.9509147874 15.4594766404 17.5731531561
H 20.7530483714 22.8798313713 20.0448922933
O 14.6958656851 23.82484251 16.8928191804
O 11.1242693735 18.2818268109 16.1143525303
H 18.9788836148 13.6318865463 21.239831433
H 18.1939146475 22.5507230145 22.9636762981
H 17.3878913686 13.7157490412 15.0608420002
H 12.836127642 17.9243998281 16.1203379783
H 9.9471549325 18.1482153783 18.94851592
O 15.3004455935 18.2164424928 18.4912205246
O 18.2152544412 13.5608166354 14.6051236091
H 14.0384358863 15.3929989391 22.4868833954
H 9.6376208678 16.4617810612 22.5078503839
O 8.0204713158 15.5865277735 18.355920727
H 14.036580252 19.8471142645 22.0491930302
O 12.3239369075 11.7849435688 21.4462397865
H 20.6933112231 17.7244200325 18.1327387827
H 8.4435202365 21.0054444743 17.1884357978
H 22.6804813789 20.9786565848 22.2683249409
H 15.3801308099 11.1137155946 16.6788125337
H 21.3482073675 21.1450695147 21.568887709
H 15.0307719796 12.9034746285 19.9717408
O 14.5044855618 20.266098724 14.4453802454
O 12.1812671829 24.2296129873 20.946687845
H 20.3022363077 18.5619515983 24.147683931
H 9.0727943544 23.0497431276 19.8021770007
H 15.3042282325 19.9961424008 23.7785215693
H 15.5586999199 16.4181550697 24.9862559481
O 21.8493713525 16.0154620205 21.6241545402
H 15.665470259 14.9727024197 20.9797690935
O 10.0897889719 20.7896106217 21.6651566511
H 19.6803133563 13.9731314571 15.7523942108
H 12.2930334604 22.3942598722 14.1868232282
H 13.0960948615 11.7415362539 20.8821740342
H 16.0989392796 14.7090877193 16.8546843501
H 10.7445423752 19.044680301 20.8876577081
H 20.9529929604 14.817113984 20.6041553507
H 9.6288422904 25.191134213 19.5363801003
H 18.1319293269 14.386539662 11.5074571433
H 10.207122152 12.0504170207 17.4898228172
H 22.6670994012 19.254609884 20.8046140972
H 15.3750278157 23.2498322614 16.5403587275
H 15.3335972129 16.3125342482 12.9132847623
O 16.1563568851 14.415842333 20.3755255735
O 12.5674532157 23.9394290741 14.9238935164
O 16.0306019803 16.8339687178 24.2647406565
O 15.6924840113 16.5994380117 12.073565833
O 20.2509565693 14.3173285026 20.1874678151
H 8.1704565215 15.1442542509 17.5203951953
O 20.2307943896 22.2259881908 20.5096784589
H 22.1609751632 16.7735046243 14.8565124251
O 12.1982890585 21.5715983186 13.7067329529
H 14.8538443921 18.1596959024 17.6465196954
H 8.7057713135 14.4672313455 19.5914677265
H 16.5098195219 20.3379340032 24.6280250933
H 10.7501449632 21.4131670864 21.9675472186
H 14.2622182381 18.4180623632 20.1832027354
O 16.0418428416 21.7932271024 20.809237587
H 10.5567307793 20.8145397597 14.0436742502
O 22.9633228588 18.08676724 15.7144385855
H 14.6639630504 21.1912102876 21.7463365296
O 16.8219586117 15.8760556568 18.0907689646
O 15.8020734871 19.6993981881 24.5403221516
H 10.1674758129 24.5150953526 17.2834861457
H 21.0721817748 16.4265741207 24.9432467409
O 21.8368101361 15.9650570529 14.4595374427
H 9.5132933739 15.7577515897 14.9453622789
O 18.2549721509 13.2992793632 21.7704216857
H 9.1756036281 21.5789239863 15.3308322984
H 16.481021506 21.4998723777 16.8695225265
O 20.3115144789 19.5171312011 24.0860732417
H 20.9406815409 13.5902286447 16.4985681145
H 19.6691438656 22.1098708901 15.2110516563
H 19.0508608121 20.3662526292 12.109550203
H 19.4765147577 15.9719453674 12.3889308447
H 11.947314528 22.2049952325 23.8626404103
H 16.9113502225 22.045470617 21.1199432679
H 15.0309504059 16.4957852801 22.7881270507
H 17.282762552 15.4959956408 12.0904469468
O 18.1548035874 21.3404571006 24.315133111
O 14.2794899106 20.6783042074 22.4571712014
O 9.4260785648 18.0954049676 18.1473260721
O 14.7885046559 23.8848692502 19.5906075423
H 15.5470665206 21.2490502613 15.7047256729
O 14.7845435905 12.0126952987 19.7226816494
H 12.6812535538 24.6074862368 14.2478963024
H 15.9439938209 17.772747572 24.4307920373
H 18.6776999041 15.9981865653 18.1901560743
H 13.5749198651 15.4301739695 14.2487923275
H 19.847641605 16.3362606646 24.0576513239
O 12.1757716507 14.3182032092 22.8438956561
O 8.0457008044 20.5048936247 17.9008116329
O 12.5584605267 12.1629261566 15.0139978054
O 10.1444944966 16.0040908348 21.8371576388
O 14.7070351758 11.7525794247 16.9136428049
H 20.7357766989 21.0684233492 15.4748414604
