108
sI: 108 water molecules, lattice constant a = 12.03
H 16.49663073 19.81718195 12.06939825
O 14.19120153 15.99304121 14.18910831
O 17.95632687 22.40769993 21.7066914
H 17.98606503 21.40378159 12.75788718
H 18.07398027 14.64187176 23.38974855
H 19.4557581 21.87980639 15.3790317
H 18.75099258 22.1406096 21.24470331
O 20.21390073 21.59587556 20.34855252
H 15.7763826 17.51778008 24.0406317
H 18.06986601 14.64187176 11.36207034
O 20.37493431 16.74199438 11.98364841
O 18.07477425 22.29037778 14.3255646
H 15.18580584 19.58613029 23.38213356
H 18.76109778 20.35866016 24.02738667
H 20.88643788 16.45997214 24.77838348
O 15.85733247 21.44779143 20.2298886
H 16.58837151 21.80525911 20.73384936
H 13.83488496 18.03747791 19.59589557
H 16.10216703 14.93882591 16.55145144
O 22.56613866 17.94878461 20.33159022
H 20.76261309 21.11569677 15.38430084
H 21.28783086 20.61676889 21.36809502
H 16.49688336 19.82189729 24.10140726
O 14.19971877 15.89098778 21.82041099
H 14.73800112 15.43719244 14.74435296
H 21.27491064 15.43404888 14.7369906
H 17.29508589 15.69990424 24.14190024
O 21.81994182 20.1590441 14.32235259
O 13.48535331 18.0831718 15.79056597
H 15.27397371 14.92232222 20.77805961
H 14.75131833 19.87432738 13.54374693
H 13.44781971 15.43842741 13.95228573
H 14.80945932 20.59757072 21.37451904
H 17.9670456 12.78503823 21.86158968
H 13.90139883 19.38752466 21.43006155
H 22.32339732 18.69807459 20.87550261
O 20.33343081 19.49070079 24.14128671
H 22.57599123 20.63125172 13.97347056
H 18.75276099 13.95444255 21.30742773
H 19.92969198 14.87516882 19.58763096
O 18.08358021 13.64895588 14.44372326
O 17.95777047 20.86769234 11.96538687
H 19.48491882 14.22366601 15.39769023
O 20.228445 14.57900056 15.88461651
H 22.58024985 20.58735415 22.15590363
O 18.09628389 15.18424813 12.15031203
O 15.71362209 16.563036 24.01518825
H 20.27673342 18.53281315 12.0887064
O 15.6872403 19.30848658 12.11736186
O 21.82683501 20.04733545 21.9170961
O 15.70882212 16.5607906 11.98249353
H 15.3151524 21.17924159 15.3191223
H 15.18032016 16.3351279 12.74799852
H 22.43625075 18.75061695 15.22478304
O 15.68857563 19.3114056 24.1489017
H 20.88163791 16.45963533 12.74503914
H 15.18515622 16.33681195 24.78058497
H 16.14854268 21.13545629 16.58223621
O 14.22974565 20.11256432 21.96181161
O 17.95589379 20.8753267 23.99703498
O 20.37926511 16.74435205 24.01800327
H 18.76398498 20.35259758 11.99519721
O 15.89262849 21.7139836 15.86390085
H 18.0836163 23.24714272 14.29810011
H 16.57999863 14.15675309 20.79419184
H 15.18551712 19.58276219 11.34976365
H 14.71447044 16.12798975 22.59187083
O 18.10104777 15.18469721 24.17766543
O 13.30977546 18.05544111 20.39601087
H 22.17813507 16.64735077 14.67441054
H 17.28425889 13.91413762 14.89870989
H 19.56319803 16.23734073 12.0349323
H 19.92980025 21.10289799 19.578825
H 21.33983655 16.16694744 22.61103462
O 20.18650842 14.31067526 20.31672114
H 18.07888851 14.15854941 13.63350276
H 12.5290044 18.06565768 15.82665597
H 20.85525612 19.71400582 23.37054867
H 13.6052082 17.29324008 20.89405287
O 20.33729244 19.48789404 12.10729275
O 20.19585573 21.64976516 15.94077255
H 20.76441759 14.85597065 20.85045615
H 22.10274306 16.56909858 21.36679578
O 21.85498521 15.9163608 14.14774917
H 17.98685901 21.41467178 24.78729771
H 20.85918993 19.71030091 11.33633817
H 22.22371674 17.98403739 16.51283514
H 17.9674065 21.89866775 22.51723671
H 15.33731166 22.21324829 19.98530667
H 20.74251096 13.81051241 16.13226609
H 17.2899972 15.69889381 12.11458293
O 22.74442326 17.98493555 15.7096161
H 20.27518155 18.53539536 24.12306126
O 17.98011018 13.7416909 21.83087709
H 20.74048992 22.31227043 19.99382391
H 15.28068645 13.74191544 16.12201653
H 13.71838644 17.33736219 15.23766717
H 23.52194622 17.98134291 20.29095288
O 15.84051453 14.38028266 20.22898635
H 13.4630136 15.3886918 22.16849904
H 13.98310659 19.46734863 14.78314971
H 19.56828672 16.23835116 24.06755484
H 15.77255706 17.51553468 12.00782871
H 17.30890836 22.07257398 14.85684549
H 21.30648939 19.92372618 13.54955742
O 21.85245891 15.80611166 21.88768275
O 15.80420799 14.46437289 15.77533599
O 14.2414749 20.23303003 14.27009427
