172
sI: 172 water molecules, lattice constant a = 12.03
O 10.5544355453 18.0332902198 15.731269938
H 18.3885829557 22.4489717175 21.2740156646
H 19.4974609623 16.4475452224 24.2877373745
H 9.4221152341 24.5587020184 19.5018844574
H 20.8256207081 19.8754465719 23.3843688076
O 16.7098218135 15.8001147597 18.1950544468
O 8.0804886326 21.4428061201 15.7933601992
H 7.7697177779 20.5837241167 17.2854231735
H 18.8498762065 20.5737653317 24.0773462243
O 15.8012365668 19.5499803454 24.4611606632
O 8.6365130197 13.9515016129 16.0888525835
H 13.7229230762 15.1471029999 22.404559435
H 17.1686568287 15.5786138711 23.9251803507
O 9.8168936178 23.738360783 16.43662962
O 12.411294074 21.8802266001 22.934599123
H 9.322253867 14.5654442931 20.9998164823
H 14.8562409322 20.5130276868 21.7036731148
H 10.0486802945 16.5344383575 14.9688301599
H 10.2876279183 18.7381752114 15.1412514155
H 19.9431853878 19.353431138 18.4990998988
H 9.452789739 20.8847858481 21.76744536
H 8.8754606435 22.4456886016 20.1610432592
H 10.6834751 23.7551046743 19.7363959742
H 13.4223414299 15.4631576274 14.4889636974
O 9.7370900279 20.0433232335 14.0783806618
O 7.996267344 15.5249896442 18.2450845247
O 16.0941584936 14.2335212719 16.1083206539
H 11.2641174696 23.8226274254 15.2743070877
H 13.9053312816 11.9560237466 16.3225410017
O 14.4798458755 24.0386564541 16.5934120029
H 12.4780939539 21.706549767 23.8735040757
O 9.347441875 18.0087762875 18.2228608635
H 11.1017314148 14.9660938746 13.8702798728
H 9.2343274117 15.2712047823 15.1507349425
O 10.7316422668 18.1712905264 20.6606283003
O 14.2194510369 15.9188541194 14.7596199772
H 12.7703033486 24.0236635579 20.5636458174
O 13.6508148325 17.8782177104 20.3870374952
H 12.4063063496 18.2147370939 16.1970363643
O 10.515281909 15.9007969817 21.8668971386
H 20.3335816993 18.7205558226 24.2305857047
H 14.1099348605 19.1960604474 21.683668241
H 21.242345079 16.3398590197 22.799145729
H 23.4955851885 18.2508513692 20.5658646048
H 9.4752344986 10.8499419875 16.6033607595
O 9.9057107381 23.7978946187 19.1801244929
O 13.3597811156 18.2473493789 16.1190209352
O 11.9477207207 14.5268129622 13.7829598513
H 10.0240623121 16.2108325634 22.6277265064
H 15.4685553515 16.4847538697 24.8760023392
H 14.8801820092 24.6822566148 19.7318510387
O 14.3990447408 15.6446045015 21.9445546987
H 8.7317073019 21.0091065049 15.2419915223
H 18.5806103438 13.4533434881 21.5383734511
H 15.7368236693 13.4302522394 16.4868386324
H 13.6751478021 24.0749896038 16.0762913837
H 7.8856823694 13.6171709734 15.598178479
H 16.4398790454 20.2024449192 24.1734340349
O 16.8127470685 20.2048525376 17.9353131697
O 14.6614346691 11.8877349351 16.905545293
O 9.9893620011 11.8299520946 19.3731589994
O 17.9206275302 15.0036308334 24.0670753857
O 21.7717920206 15.8956534334 22.1368734674
H 20.8856515335 16.6700310457 24.84937689
H 11.5976537233 12.0523284807 15.938690776
O 15.7261000619 21.5195215958 20.1612937674
O 19.5332300714 15.6696656198 18.2539954613
O 20.3970326786 19.6755048114 24.2165930291
H 14.9477656744 21.1933987461 15.5792114251
H 15.1889221475 11.1813178227 16.5327532175
O 13.9838523138 20.1626097792 14.2169117287
H 13.0581662978 12.0247503069 20.6474229364
H 16.089277649 17.7266471913 24.2724205839
O 22.5399371997 18.2206467026 20.6116360424
H 19.7318127544 20.6913008822 17.8228707485
H 15.2779174009 14.5862373607 20.7539605201
H 22.0138035322 16.5865304637 21.5201221351
H 13.9010204627 17.0335814171 20.7614757678
O 8.6024896142 21.5725986368 20.4428650499
H 8.5404280724 14.6705040031 19.7076590983
H 17.7497623441 20.0912567262 18.0944932745
H 9.1822056921 13.1810637398 16.246780147
O 12.3247926828 11.9474876451 15.3250886904
H 9.7439659622 23.8250350438 17.3871295264
O 12.030801958 21.7385054288 13.2577871809
O 12.3397202293 14.0806375064 22.8912611943
H 15.0765202162 12.4296679391 20.0058354996
H 18.5769764304 15.7081875134 18.2364956701
H 9.104931591 19.8403172314 13.3889103608
O 21.7610327866 20.6009057567 21.8468564779
H 11.7560852252 14.7739221551 22.5831002495
H 14.4878974877 18.199853635 17.4726244163
H 16.4172205262 15.2786465117 18.9425353032
H 12.2044103926 24.7714479311 14.5617900268
H 15.0011699517 23.3517191629 16.1780693104
O 11.9296936598 23.8263482901 20.9767339356
O 9.5896315197 15.8525351775 14.4783707768
O 20.0530934568 22.079840049 20.3929065458
H 14.6843425746 15.2851033064 15.3060142758
O 15.103525181 18.0936995531 18.1978816114
O 17.6470508487 22.6501172872 21.8449239856
H 14.486080531 11.9281172611 18.7051966217
O 14.5170044221 11.7426212107 19.6437437055
O 14.1995713927 20.0077561442 22.1829312001
H 8.2291584453 19.4030061886 18.1139971318
H 17.8689689564 22.2388522976 22.6803332407
O 10.012768679 11.6302292085 16.7391004487
H 12.7061042107 21.0912938405 13.4613788212
H 15.0804747691 22.1588537059 19.8601828408
H 21.8328560175 17.8352088916 18.9461139926
H 17.8125364179 12.2047744974 21.9167124951
H 10.3398208911 20.6681001962 13.674955005
H 9.5849644347 12.6085977576 19.7558998315
H 22.2823924894 19.1135448002 20.8410658202
O 19.4838159735 20.1873425859 18.5979433002
O 12.1619791089 23.8980296548 14.9511156474
H 12.1453414854 14.5704784042 12.8474188667
H 16.4816334237 20.6152420297 18.7341840059
H 17.7998533474 14.2911946752 23.43930169
H 12.2717090449 12.7157367743 14.7565423043
O 21.4030210568 17.7422967106 18.0959247503
H 10.1563795142 18.2601535311 16.5716893582
O 7.7722472667 20.2415139989 18.1793440003
H 21.2014457392 21.1801568452 21.3295569242
O 15.8770856038 14.0219791684 20.2653262685
O 14.206091061 24.0504756714 19.4816648622
H 22.4532576756 21.1712924321 22.1808913471
H 12.1319102562 23.1466338541 21.6196454875
H 20.5732062285 14.7298189643 21.2381929837
O 9.9717624594 20.370431018 22.3857713156
H 19.8331704389 21.4326284607 19.7228685282
H 20.7379792657 17.0681635716 18.2356367847
H 9.0041795588 17.1237576682 18.1001118169
O 8.7882110937 14.0513083374 20.3943022347
H 16.1360553783 21.2359698161 16.5162196724
O 17.9975809919 21.0092159421 24.0671111726
H 10.5565375149 18.8934665952 21.2638521867
H 19.8037428651 14.8376146042 19.9388782208
H 15.1304945192 19.5533728985 23.7782751506
O 17.8169541166 13.1550176867 22.0323399499
H 11.6738233997 18.2172541495 20.4981915882
H 12.3507644762 11.1586643228 21.6679577945
H 14.1737421058 17.9512123214 19.5886676755
O 15.8137771309 16.8360472749 24.0552299238
O 15.7218248696 21.7126782501 15.7969031017
H 12.2706046203 22.5066451208 13.7760171939
H 13.5935272555 17.4254760227 15.6876457141
H 9.6193441063 18.035588401 19.1402578929
H 16.3984809332 22.0439446481 20.5961045303
O 12.2826107853 11.9952022634 21.2077025499
H 14.87230853 16.104459607 22.637997345
H 10.0468633377 11.7357266672 17.6898508633
H 16.2425432935 16.6307430917 18.2841995999
H 10.721666818 20.92845129 22.5920111861
H 20.7630960205 22.5929910699 20.007052254
H 19.7681162625 15.179277536 17.4662185623
H 8.2104901055 15.0107442513 17.4666837919
H 18.0244434503 21.6068524797 24.8144130945
H 16.5659615921 13.8029953354 20.8928494559
O 20.3193666849 16.9067437047 24.1148508893
H 15.746264719 18.7916900012 18.0711960065
H 16.3165041205 14.7768769594 16.864318791
H 14.519070765 19.7048339804 13.5685963559
H 9.2838483894 22.9723003978 16.2239123217
H 8.3692778734 21.1206230095 19.6319698173
H 14.2865003031 23.9776999348 18.5306281525
H 13.7183984977 19.4803782875 14.8336630611
H 12.9731255974 21.2205391712 22.5279168589
H 12.2685026507 13.3944662757 22.2277721783
H 10.8006866226 11.7134014789 19.8674833672
H 10.6443214637 16.6826163235 21.3298074325
O 19.9484581249 14.258472953 20.6871463888
