174
sI: 174 water molecules, lattice constant a = 12.03
H 21.0638492496 19.1250227908 11.6855313033
H 15.668736053 19.0890001328 11.4529013645
O 15.7630184106 21.4697802993 20.652949181
H 14.4017746394 19.2013382698 14.7359454146
H 22.5793732424 20.1091311488 14.5340422071
H 20.9752928293 19.5940837838 23.421070381
H 20.5816613189 16.9325677662 18.4073967852
O 12.334782432 23.7815809081 21.5062590915
H 10.9395031209 20.2764339493 22.1217583933
H 11.7626510526 17.6828025758 20.2405678644
O 13.8205386641 17.7490448496 15.5936499622
O 10.158250556 19.7896353557 21.8593663998
H 13.0066375876 23.8224211859 20.8256977226
O 13.5186999735 17.7856149644 20.3234585813
H 12.5020438156 21.1808325961 23.882864569
O 8.4225447165 21.690405393 16.0392947519
O 15.7806941298 18.9483037332 24.1975634633
H 16.5748922919 14.0346598989 16.8063554422
H 14.7733915216 17.558091915 17.0760361022
H 11.3836011215 23.8062164644 15.7051236849
H 17.3329921542 21.8438027905 14.9943357873
O 20.5437492128 18.9305661326 12.4652399736
H 10.4728925846 23.9863297542 20.6595232724
H 12.9839116629 20.4968400602 22.6211749628
H 18.438098038 14.0253531331 11.7670643274
H 9.89667125 23.6903746039 17.9785087827
H 18.6575685882 13.3694998772 13.7706973076
H 18.2368011145 11.9795070417 22.3306644372
O 9.8159035269 23.876947884 17.0431656455
H 9.3451674705 24.7673316365 20.0190495692
O 20.1309126956 13.6466225134 20.5563028926
H 13.1120873011 21.0360850161 13.7940996436
H 22.2580094614 17.6503931328 17.1460644665
H 13.6532061509 15.19110766 22.3046539019
H 17.5738371658 14.8277058309 24.3672393316
O 16.7648084706 19.8475562859 18.225180123
H 9.404845251 19.524775752 13.7491885957
H 18.6934179343 13.1550062998 21.4930394513
O 8.5212015478 21.7013545291 20.5407608831
H 15.2797279702 14.6585416772 15.0043398394
O 15.9281103397 13.9424681724 20.5628412552
H 19.978908623 15.7727257728 12.4061446091
H 19.6441369021 20.6400547612 17.4661584031
H 16.6316537566 20.3903049654 19.0022805941
O 18.5009410881 14.6390522149 12.4989321918
O 12.2493557164 23.7808144685 15.2977086655
H 8.7876176704 21.0679470023 15.4103257085
H 7.766729298 22.1781894089 15.5410929602
O 9.3328264754 17.6715249656 18.3172531306
H 15.6386126441 15.8756476527 24.9147110796
H 15.4090416828 14.4822605851 21.1589398418
H 21.5388886501 12.8374813512 16.5373178998
H 15.8064075001 18.3018667343 17.895582337
H 15.4279977359 15.8996262609 13.0197860156
O 14.5590778713 15.2397218246 14.7610984597
O 21.1638575445 17.6919998502 18.4295486147
H 21.3736188969 19.3471807635 14.0264794811
O 14.3379357741 15.7443675102 21.9288588327
H 22.4575992731 18.3188378953 15.8024488198
H 22.3453922425 18.2086895856 21.3248641907
O 12.2080293869 21.3199961167 13.6586519247
H 14.0680698633 17.855141979 19.5426780482
O 20.377768163 16.5138727995 24.1052403544
H 9.6308241647 20.425013727 21.3752774672
O 17.9967029643 12.873175535 22.0858152635
H 20.4278078753 18.412890975 24.1937404862
H 12.8900560832 17.783972594 15.8154898162
O 19.5993963491 15.2887739546 18.2507619132
H 8.5894860166 17.130528148 18.5836824737
O 20.8194477553 16.2190125627 12.5085432275
H 21.5611522321 15.7287102455 22.4957670247
H 21.1026149116 22.1222393231 20.1827944638
O 10.8247354227 17.7363438517 20.4241422193
H 16.5349885555 21.8985484713 21.0222773452
H 19.8926994812 14.7456968011 17.5190726927
O 20.0721596006 21.5456578129 16.043546474
O 14.2275425496 23.840596752 19.6648703981
H 14.9121654783 15.9499922872 22.6665862133
H 21.693915733 17.5652088535 19.2164387653
H 16.5941684284 19.4495551865 24.1408976542
H 14.104203728 23.8231876255 18.7158074182
H 14.5059084542 24.7366740553 19.8542328118
O 9.813805202 23.9343213575 19.9673143286
H 18.7583948741 22.1847588906 21.6339893988
H 20.6560629379 14.2582412592 21.0723333341
H 14.7898224719 20.2179655622 21.6081217785
O 16.088827795 16.0658341478 12.3475494471
O 22.6943187647 17.5282007733 20.7491667244
H 16.0874052019 17.1164037623 24.1723746894
H 14.0684255116 18.9019888872 21.4091126004
H 15.6873008929 12.9336147666 16.2660294457
O 12.3778158732 21.1684600722 22.9338373178
O 17.9322239321 22.3833762205 22.0747393487
O 16.0244554573 16.16492383 24.0878761784
H 16.2701017206 20.8948411596 16.8029254815
O 16.4420576614 13.4771298856 16.0396877682
H 19.9650383403 19.2579453038 17.9939793346
H 20.3008058764 20.9134546911 19.7494760954
O 10.8111496586 17.7022920382 15.9565826787
H 16.3661978844 14.8626335752 18.9816651012
H 18.8480182393 20.2331848615 24.0777292113
H 21.8230871863 14.8775244004 15.3509445139
H 20.5829416527 17.977772304 12.5482736056
H 10.3532880698 18.4160662244 15.5126171406
O 8.0273127889 20.1016857362 18.1630120853
H 10.7183610238 18.5656314244 20.8902238582
H 14.6681196323 22.5610807004 16.5894104279
H 18.3959537174 13.8559699967 23.5475144531
H 13.8600867523 17.0225696654 20.7898975077
O 16.2524260013 18.8115490225 12.1589730661
H 15.3689601223 19.0612988183 23.3408950497
O 14.7857325167 19.9243097304 14.2397801621
H 16.2920807839 16.0705422764 18.0720466693
H 18.6453342876 15.3001610562 18.17380217
O 14.2887851825 23.3092351741 17.0504185833
H 12.6190876628 23.0715294281 22.0818136427
H 21.1881127568 15.854844294 13.3133334855
H 22.9464733915 20.2600102451 22.0734888422
H 18.0908786274 21.0353185765 12.9174945835
H 20.9938221044 16.1495950394 24.7408906754
H 19.6622038345 14.2003203289 19.9317999439
H 22.5655740893 16.1814570256 15.1496844241
H 19.1503548376 20.1432924536 12.3061398174
O 18.6894346737 12.7319316786 14.4839504894
H 19.3964990085 21.7868672825 15.4098612347
O 17.9270670321 22.1055966361 14.2909080138
H 15.2736463847 19.4989357906 13.5346016794
H 15.5833093374 20.9231994223 15.4540577074
O 21.8162587395 19.614120703 14.832162958
H 17.8632637317 23.0603613092 14.2658264262
H 23.6065565892 17.7800309049 20.6053942051
O 22.1320388425 19.7645618339 21.9873110796
H 17.8887281481 21.2207969431 24.7073413723
O 18.3518888962 20.6260398669 12.0924818488
H 8.5997286869 19.3366695927 18.220035182
H 21.5120016405 20.386253785 21.6062638831
O 18.4505101627 14.4499606334 24.2961391046
H 13.9577477685 16.8571282181 15.2741634145
H 13.495511706 23.5180352007 16.5571473601
H 9.3417888119 23.1249612126 16.6884505431
H 13.8046411863 14.6586511686 14.6637018674
O 15.2794078867 17.5027987774 17.8866501477
H 12.3183514817 24.6122918685 14.8285543535
H 16.3634949575 16.9701233032 12.4993966656
O 20.5310881342 19.3634949763 24.2370437401
O 16.7707833616 15.2526418052 18.2067440843
O 14.2955780646 19.546893007 22.0789196133
H 17.9318682838 21.8204811305 22.8489457905
H 16.9371556245 19.4799937851 12.1810177094
O 22.2232981898 15.4242147689 14.6747063246
H 10.325227421 17.5757200242 16.7714841751
O 19.5157834398 20.0709186636 18.2250014792
O 21.9403799873 15.2604156919 21.7520014841
H 17.9474101134 12.9607686243 15.0436772012
O 20.984824203 13.5914388671 16.3352003198
H 15.2843513977 22.1733717889 20.2147002441
H 19.5747499237 16.0087891484 24.2327205604
H 20.6211382774 20.9132357083 15.5800730344
O 20.5467010935 21.4210566434 20.5227893182
H 16.6022772091 13.5514745201 21.1186020748
H 10.7328714734 20.1201897763 14.1659288208
O 22.787640872 17.6064870968 16.3499562965
O 17.953882912 20.568228428 24.0100946738
H 17.711473048 19.8587244048 18.0839800742
H 8.5344672285 21.1517078939 19.757193507
H 17.7398893452 15.2108161051 12.3986415701
H 8.2543230826 20.5094315668 17.3272807235
H 9.9025038817 17.6921093416 19.0861717163
H 12.0979562459 22.0621285656 14.253035531
H 22.2652291214 15.9508682181 21.1740888349
H 20.2754481544 13.231978727 15.8024488198
O 9.8967779445 19.8143804034 14.5175355213
H 9.0403768992 22.4697649048 20.3037005785
O 16.088009804 21.4678094548 16.058123807
