66
sI: 66 water molecules, lattice constant a = 12.03
H 1.6825158589 5.2408690468 3.1950478577
H 4.0194635348 2.6859381246 4.4984979678
H 10.3231840085 6.7852807013 3.2025060605
O 9.0239429426 6.0149998665 6.0149998665
O 4.5928134905 3.694653506 6.0149998665
H 0.4650798137 5.9970750827 3.6826236265
O 2.263324258 8.3173017447 2.2096703028
H 4.0500197462 4.4829792922 6.0196914702
O 3.0060563092 6.0149998665 6.0149998665
O 6.0149998665 1.4219459324 2.3208274883
H 9.3090543693 8.0359201472 1.4174948926
H 3.5323688938 6.8139123894 5.9856467273
O 8.335346227 7.4371862425 0.0
H 2.7525842148 7.9864759461 1.4564720436
O 6.0149998665 10.6080541615 2.3208274883
O 9.7666759441 3.712698698 2.2096703028
H 6.0443530057 9.5495338475 0.7993934702
H 2.7814562262 3.1246721788 2.7593209786
H 8.7359456993 1.4174948926 3.9940803076
H 3.2076792732 9.2350692695 3.1855440135
H 10.065741545 6.019812107 4.4829792922
H 6.4801998118 3.6831047543 5.9970750827
O 3.694653506 7.4371862425 0.0
H 7.6976356525 3.1954083486 5.2409896837
O 8.2783241245 9.8203296708 3.712698698
H 10.0264034218 4.4672203054 2.7382686114
O 6.0149998665 9.0239429426 0.0
O 4.5928134905 8.335346227 6.0149998665
H 8.8302602717 4.2907400168 0.7614989831
H 9.2226791397 3.1856641812 2.7949297417
O 3.7516756085 9.8203296708 3.712698698
H 5.5497999212 8.3468952193 6.0329246503
H 8.7964563333 9.2706785258 3.1246721788
H 4.3323640805 8.8345909152 6.7890100493
H 7.9799795176 7.5470199596 6.0103082628
H 8.4976310678 5.2160873436 6.0443530057
O 7.4371862425 3.694653506 6.0149998665
H 1.9954160437 7.5313811283 2.6859381246
O 1.4219459324 6.0149998665 3.6941723782
O 8.335346227 4.5928134905 0.0
H 4.4853854125 7.9764914553 0.0016842
H 10.5346708263 8.7895984636 1.8882286498
O 2.263324258 3.712698698 2.2096703028
H 6.0134358462 1.9624538444 1.5308175141
H 2.4804656449 6.0443530057 5.2156062158
H 7.5103287732 1.8882286498 3.2404007882
H 5.2328095485 1.6952675624 2.8001027138
O 9.7666759441 8.3173017447 2.2096703028
O 6.0149998665 3.0060563092 0.0
H 4.3081836728 3.2027466244 6.7851600644
H 3.2624154111 1.4564720436 4.0435237869
H 5.2293205238 10.351935383 2.8039522175
O 3.694653506 4.5928134905 0.0
H 7.5118927934 10.0685081442 3.1958894764
O 10.6080541615 6.0149998665 3.6941723782
H 6.0008044187 11.5650405922 2.3294889919
H 4.0114030862 9.291730881 4.4672203054
H 9.5495338475 5.9856467273 6.8143935172
H 3.6767287222 5.5494384798 0.0277892994
O 3.7516756085 2.2096703028 3.712698698
H 7.7218160602 8.8272533372 5.2448391874
O 8.2783241245 2.2096703028 3.712698698
H 3.1957695494 4.3209352439 0.7702808949
H 6.8139123894 8.4976310678 0.0293531993
O 7.4371862425 8.335346227 6.0149998665
H 1.4968929269 3.1958894764 1.9614914685
