173
sI: 173 water molecules, lattice constant a = 12.03
H 18.8588952217 20.1590579394 24.0783057629
O 14.876396488 11.4686150402 19.2979180284
H 12.5177120891 13.5488058285 12.7092875353
H 14.0467388359 16.8693260435 20.812576026
O 8.7951159514 13.6113720913 16.0088568163
H 10.2136636819 17.6816978346 16.5862306812
O 10.3768261367 15.1804767826 14.5418947658
H 22.0208245515 16.0641015408 14.8608057543
O 19.6176219371 14.9879398299 18.352441164
H 18.7198024241 15.2857068589 18.2057556451
O 16.2383201724 13.9957862469 15.9367251564
H 14.6078671563 17.540181525 17.6264582693
O 10.786755829 17.6958824531 15.8197115747
H 8.0940073091 14.0669292557 19.7265760018
O 16.0699390751 15.9726162497 12.3135073506
O 10.9416110569 17.5572250588 20.4171164265
H 16.2663304372 14.5650402754 16.705737703
O 17.7627672942 20.6351773026 11.9444782162
H 17.486889262 15.1030661517 24.3937259352
H 22.1366997152 16.289955853 21.5863261088
H 11.8118108159 14.0407591845 13.9549389669
O 12.1275919377 13.914856951 22.8080405155
H 20.0369593862 17.8680771235 12.1383609941
H 20.0689102586 20.4909120359 19.7992063498
H 14.9781067649 20.3225659054 21.47882322
H 11.8011250242 11.4196836045 15.9592373584
H 17.9910030257 11.9814604698 22.0334711595
H 15.4501631535 19.1396347023 23.4100994373
H 18.4050508304 19.9573944493 11.7338181485
H 9.7902436213 17.3269724153 18.8728221124
H 9.8126802339 14.6197995001 15.0743154678
H 23.5008244598 17.8468551749 20.4138749544
H 12.6526867743 17.4397896131 16.1202423476
H 20.647398553 16.6429219398 18.2714399814
H 15.7173079473 13.2423520952 16.2146724861
O 18.2446219503 14.335997173 11.9919604398
O 20.541037649 15.9872407013 12.147622343
O 20.2571718987 13.6502973233 20.6625777938
H 20.8526296564 15.8565003034 24.8718252636
H 21.410065876 14.6905026758 15.0397278916
O 12.5821463483 11.3990114474 15.4061923448
H 16.8374700309 13.6075235514 21.0912357672
H 18.2502666044 21.2373088576 24.9494068712
H 19.0917460792 22.0169130805 21.4238606762
H 15.411360594 10.8770394803 16.54697681
H 16.5077725292 20.3899703326 18.9686770738
H 18.9568423959 13.0790640457 21.6406118618
H 15.3412816807 12.2063251575 19.6928076987
H 14.1644245491 19.0463900787 21.5138738637
H 10.7175999408 18.3158272498 20.9560913139
H 16.475750655 14.9859605808 18.9888383181
O 21.0429858537 17.5145612452 18.2632472497
O 16.7987739744 19.9654214039 18.161657376
O 18.1393970773 12.9235830342 22.1137955512
O 21.9198952958 15.4529534066 21.9969956929
H 21.2426788059 20.2307507395 21.6809699708
H 18.05891638 13.9331100259 23.6217925016
O 20.3894840112 16.0782861592 24.0640219132
H 20.3211801463 17.8339900559 24.3075597696
H 12.4255160718 10.7790666506 21.5980096567
O 15.9939314999 21.2764540061 20.5022852161
H 14.1158947241 17.8740148707 19.6822283886
H 11.8981491732 17.561953265 20.3817451977
H 19.8414910494 14.5009345967 17.5593847307
H 14.1991089961 18.8467058377 14.954808446
H 15.1622147916 20.9863840569 15.6187759234
H 19.6061196231 15.5283847884 24.0778070749
H 15.6301885687 18.5340944406 18.1354050138
H 10.5421896516 18.4943995006 15.3519778329
H 10.7947080461 11.5813222798 20.1858320472
O 20.3747866099 21.1358173628 20.4369927061
H 17.9901510025 20.9139215487 12.8315017206
H 14.9616343152 18.9317035901 11.6452654045
H 16.390157818 16.3427358286 18.3226979857
H 9.2773966191 15.801081329 22.5313042852
O 8.3607260913 13.5554033255 20.490459186
H 19.927474397 14.1837049517 19.9393376832
H 8.8653723696 14.1682008339 21.0252664663
H 16.1050495337 16.9462968413 24.0339937703
H 13.8933391477 16.6833865878 15.6953245344
H 19.7294854913 20.0902240545 17.5787979429
H 13.3056916032 11.3730612927 20.5189200236
O 20.4468180766 13.5974073894 16.0835531576
O 20.4250204814 18.7766624118 24.4367912078
H 8.1427856409 14.545797576 17.3708094182
O 22.4936619613 17.4533144819 15.7272761882
H 19.8347458652 15.3691651953 11.9592251334
H 19.7431888655 13.250818883 15.5349250949
H 16.634013976 19.4453187276 24.302857854
O 15.8993924187 18.8403282573 24.2005911894
H 18.0934588231 13.8963839595 11.1551975636
H 20.4344992402 19.0245083805 11.2458519214
O 15.6417973856 21.6992436023 16.0406659879
H 22.6115961813 20.1244210804 22.3187563272
H 14.883319177 11.6553242039 18.3591378317
H 15.5245376841 14.3248913864 20.8601294907
H 15.6209583167 15.6981603766 13.1130823488
H 20.9238801017 15.6717703888 12.9662543476
O 14.5526276481 19.6940443627 14.6843770571
O 15.0240095182 11.7518675759 16.5782160523
H 20.6785329031 20.6669552462 15.4941039185
H 18.3393030353 13.2467504265 13.7640839377
H 9.2954311115 12.8309981604 16.2474077925
O 14.2804772176 15.3745531512 21.6806137651
O 10.3522594659 11.4793909519 16.9050704285
H 13.7121066995 14.8330086099 14.1255971312
O 14.4401605775 19.7834404463 22.0587261456
H 12.0926234829 13.11655982 22.2808916583
O 9.936223607 11.4333184315 19.7891969688
O 14.4318533507 15.4022626384 14.3979876516
H 10.2634005398 11.6333325474 17.8456316539
O 19.4164024433 19.6485216337 18.3681854572
H 15.4758658552 22.0368155296 20.2383011509
O 12.523534248 13.4709553645 13.6633133372
H 14.998839331 14.8375168995 14.9232486184
H 14.2150134303 11.6743469868 16.07251078
H 22.1806499152 18.2301697477 21.0480280123
H 21.3594769948 15.6867247152 22.7369062315
H 10.2555193247 15.9259939379 21.3825764323
H 16.207647335 21.2636988454 16.678060518
H 8.5778855204 16.7038388283 18.2141621003
H 14.9060042963 19.5382334764 13.8085740331
H 18.2346106769 22.6974448909 14.3625808022
O 22.5671489677 17.6360651474 20.404649226
H 16.8294468119 21.6437146697 20.7908474766
H 16.2825898811 19.3616404747 12.2470393618
O 16.1526563335 13.7403531567 20.4357816067
H 20.871551673 19.07959748 23.6461569734
O 13.605213281 17.4339618241 16.2147081067
H 20.940956068 12.8245106217 16.3568698128
H 19.9212972283 18.8361498426 18.4048390266
H 20.836938228 14.2368148022 21.1484424071
O 18.1130553581 20.7565712465 24.133161445
H 17.6634355822 12.8723424746 15.0659802537
O 19.8897723676 18.8039320658 12.0013998916
H 21.8840038159 17.4567231886 16.4651919748
H 10.4147056709 16.0078029001 15.021846364
H 21.7124631323 17.4806940942 18.9465210776
H 11.3105371297 14.3711838234 22.6069980025
O 20.0860217258 21.0448818632 16.1440012696
H 19.2738305506 21.2055309139 15.6636222246
O 18.4380667319 12.6877225183 14.5348062718
H 9.3911417247 12.1452983107 20.1242796973
O 15.5586541156 18.7477433835 12.3705002672
O 7.7548665496 14.9993754913 18.1191620326
H 17.5237392681 14.961110009 12.0683665685
O 16.8745685438 15.5174989184 18.2998651985
H 17.7315974432 19.8010337715 18.299829578
O 21.8741345464 15.2356758404 14.4043637341
O 18.2535326935 22.3253460629 21.7680978919
H 16.0097649322 16.9279338081 12.3203108801
H 17.1059283606 21.7799529817 14.7822980118
H 8.0186387514 13.2718209149 15.5638490001
O 15.9005994517 16.0168194793 23.9311571766
H 15.3857288942 15.7970128726 24.7075431818
O 18.2319836052 14.502583971 24.3714274566
O 13.6204076958 17.6555277634 20.4715446618
H 18.1717029594 21.8967286777 22.6200707527
H 9.7135970286 10.7928114359 16.7128974382
H 13.5417020469 14.8405957314 21.9726312211
O 18.0088245123 21.7728056933 14.4645625022
H 22.132333096 20.1334376595 13.8922111381
O 9.237103019 17.3874494706 18.0939782876
H 14.7616928562 15.577646099 22.4827534445
H 22.1792298764 18.1514396175 15.152930072
O 15.3141589401 17.6399136873 18.2647789343
O 21.7870506688 19.6499510914 22.2126782613
O 21.3895108148 19.6348868067 14.2326725731
H 12.4651706545 12.1291344432 14.7983985107
H 20.8934202701 19.3816528821 13.4542205747
O 12.4912993679 11.5229344318 20.9990853453
H 20.7955440978 21.8144798824 19.9091314375
O 9.8618490763 15.2858168172 21.9753740052
