126
sI: 126 water molecules, lattice constant a = 12.03
H 16.2257890104 21.2312405307 19.0355204474
O 14.2614908582 16.078863906 14.1404415557
H 18.6153906381 13.7745253388 21.685646787
H 18.6752100931 16.1439070405 18.2660201853
O 15.9696646615 17.0378136095 24.1217819786
H 15.2753877894 16.3175372873 12.6989509915
H 19.8979397396 16.348858394 24.4061352236
H 19.7396466115 15.0022690698 19.9358468714
H 22.513541838 18.1164819683 16.6999076604
H 15.7693265943 17.9651148079 23.9949724094
O 13.7938212173 18.3279812884 20.9065712549
O 15.8855747833 14.1782074776 20.2771138004
O 21.2076146082 18.4191071564 18.1648522569
H 15.51984092 16.8039420703 24.933707501
O 19.6131548762 16.066641035 18.440885417
H 15.1139894748 13.4513831888 15.8769723705
H 19.9389496165 19.7598033107 18.108440647
H 21.7194350044 18.4991014813 18.9697487421
H 16.3689488157 20.0719230503 12.327774792
H 22.8395150373 21.1328027667 22.3819876823
H 15.9186610809 14.6218322124 16.400922542
O 16.5655035522 20.6956168657 18.3186662395
H 20.3449081372 21.502108081 19.3674272809
H 21.7470961485 20.0016415425 13.5796606638
O 13.5719253036 18.0218638515 15.9991556856
H 22.3426138131 16.5622129713 14.9669272267
O 18.3315337615 22.9876234291 14.1885330807
H 18.2313111902 21.9701785576 12.6480263342
O 17.9715819697 21.2017746812 23.8950596662
H 14.2112368054 18.2891300201 20.0460879958
H 18.2772108436 22.5387603211 22.4430972711
H 18.2058986294 14.0599075483 13.6641166976
O 15.7963095943 14.0738765436 15.6256484279
H 14.0335987223 19.9972762315 21.5715683822
H 21.053247578 16.53896769 13.0742872335
H 21.2675768304 15.5005693255 15.0622495782
H 13.9963364842 15.2441073016 22.1825208203
O 14.6049173472 15.9213853101 21.8871219454
H 17.4966312018 13.8209067686 14.9800528778
H 18.0219074061 21.8249228327 24.6198753347
O 21.9129202462 16.1194612987 22.0847956857
H 21.3189730208 16.3758141897 22.7903173642
H 22.0825990581 16.9314091528 21.6070721925
H 14.5812536845 21.3969040848 21.3902837746
O 18.1184537221 15.4755779197 12.2524636791
H 21.1496511268 21.5668238172 15.4429293229
H 22.7415410493 18.7654945877 15.3513366646
H 13.3765483964 15.733786068 14.0218803465
H 18.2672528317 15.006088717 11.4316442729
O 20.6659558682 16.8752057731 12.2660914043
O 18.2791382007 13.5754671552 14.4864064636
H 13.7979971578 19.6823190397 15.1436214426
H 23.6303382254 18.2294343916 20.3139803833
O 20.098777492 14.49043635 16.2056874473
H 15.2931623052 14.8139058983 20.6785220324
H 16.2137251823 21.3501952567 16.6283621031
H 20.7396951247 17.5894797926 18.2595290846
O 18.2905952682 15.3412354724 24.142438741
H 16.3045965023 16.6240912553 18.3475354994
H 19.7796214263 16.5139762842 12.2562650972
O 20.3953049572 19.7974541185 23.8532440673
H 16.4563580312 15.2077660872 18.8603683161
H 14.7475417755 15.3595697787 14.5436787719
H 18.8790102648 22.6812877266 21.0612817983
H 21.1102830726 20.081854133 23.283856191
H 18.7415611472 20.6436696643 24.004511817
H 19.7274400163 21.0408038365 17.3299747762
O 20.5224391449 19.7799928743 12.3167291621
O 18.1496126626 22.9809663298 21.6038445734
H 20.5562749702 13.6840542674 16.4436347018
H 18.3434191306 23.9432991494 14.136173926
H 19.446188641 14.2150943559 15.561813294
O 14.0737163042 20.8550598516 21.9944582126
H 17.2607797947 15.8859171578 12.1421149674
H 20.8256052847 20.1045537504 11.4687977552
O 15.6338405257 22.4377033704 20.421280788
H 17.4715041754 20.5104185447 18.5658660021
O 17.8056151048 13.5711018442 22.1537950101
H 14.9649405226 16.2890536327 22.6941701767
H 16.4340506569 22.7343262558 20.8547141742
O 20.4101884373 21.9657041138 15.9015740007
H 22.92032127 20.8924923937 13.9285304289
H 20.3745323302 18.8454889126 23.7550885835
H 15.1200927724 23.2352456981 20.2938615574
O 16.8070299553 15.8203283594 18.2138044803
H 14.5171869055 20.1204871357 13.8855672321
O 13.9212766311 20.4351169292 14.5653396825
O 15.6496163008 16.631075753 11.8756212149
H 15.5790179226 19.035379943 18.5553941712
O 16.0183125834 21.6941817669 15.7567256268
H 20.9374633824 22.8352740737 19.7719196823
H 13.8281567278 17.4106111726 15.3085527799
H 15.8149407133 17.5617600675 12.0261717159
H 19.7426804144 22.0814939893 15.2253877938
H 16.20633698 20.1649041756 24.1068273433
O 20.5106608512 22.0567208491 20.129755056
H 18.1303390912 14.7391499467 23.4158299509
O 19.942054803 14.6182308308 20.7889783314
H 20.483892002 18.8294463945 12.2100384188
O 21.8333989182 15.950632894 14.4349797322
O 22.279617788 20.2975004985 14.3179964701
O 20.666170019 16.9107830581 24.3041424593
H 15.237661558 21.2148706143 15.4790786571
H 18.9367239036 20.7301028229 12.1417204806
H 21.7225401909 21.3826076912 21.3911086106
H 17.5972463829 22.7882378472 14.7692893488
H 21.3134051002 16.5439877977 24.9064879131
H 20.7042888602 15.1080187299 21.0978256193
H 15.0701956376 20.0619919677 11.5499185826
H 17.8424847331 12.6254663394 22.2974599236
O 15.0604160847 18.2312896488 18.5286049324
H 16.4507901106 13.8907517453 20.9941473205
O 18.1361925462 21.2433542689 12.0325193669
H 14.7499331261 18.1759593313 17.6248357146
H 12.6294833538 17.8885035991 16.1002518892
O 22.9711463916 17.9932710641 15.8682219364
O 15.5145942256 19.6422673109 12.2864971296
H 14.0152531376 17.4928972858 21.3186664924
H 14.9082262542 20.1853120047 23.3281104355
O 15.3642960604 19.7168049969 24.0272127382
O 22.7003170216 18.3426050804 20.5102196262
H 17.4925266449 15.8667097892 24.1991731128
O 19.4207403884 20.5645484016 18.1015550596
H 19.9054350174 15.3543314055 17.8722147894
H 22.6766533589 19.0381082624 21.1674704676
O 22.1849274456 20.6808839409 21.8494663889
