520
sI: 520 water molecules, lattice constant a = 12.03
H 19.8468208437 28.2034050531 12.3679280152
H 11.6413846758 26.9238186415 13.766945843
O 24.0811283748 11.8472664137 26.4949114133
H 21.508327191 16.2596144992 22.48455373
H 13.1187906956 9.2218345657 10.4183206533
H 14.8789311396 23.8461634833 18.6384912182
O 22.8439913033 18.3949919767 20.4224056094
H 23.4046426397 15.1920350987 22.1171117366
O 8.7293235942 28.7353360019 12.2252091293
H 9.4441353133 27.7289860631 10.6880242234
H 12.1940781962 23.7300461827 21.7631101204
H 21.0299660959 9.1954840295 15.3977474565
O 15.7948293765 14.1158179706 16.1677914703
O 23.9017385035 24.3871695129 9.3772827933
H 24.0010149351 10.8382923552 14.1151412162
O 10.1104150601 24.5466941284 19.0176890616
O 20.5663787043 9.8339105063 20.2929837367
H 14.025232335 17.4475753949 21.3206887425
H 17.6550670134 22.3044931078 14.7143669953
O 20.657840061 19.4553550478 12.1777556374
H 8.9870426415 17.2466115545 18.2020911293
H 24.9567736228 21.3912994215 13.6549426993
H 23.9524472775 25.4158244699 22.2117319924
H 18.1849219585 26.9296135727 11.2044214377
O 23.761816545 12.1347168689 9.2696522523
H 24.121952328 9.9364698547 11.822463745
H 12.3003846268 10.9353847874 21.8866182271
H 9.7875347029 23.6026670346 16.1367531591
H 25.8723863775 17.4890146199 21.0644255497
O 9.9179286933 27.5361132587 9.8789851952
H 8.6189133572 19.746194991 18.0103059062
O 14.5777117436 16.0620401468 22.0651781189
O 10.2945153875 11.6378835223 19.505090902
H 15.0839073522 19.9248538132 13.7641502445
H 17.4671483617 25.6339544273 14.4698596525
O 26.4472047675 20.0165886675 22.2178608044
H 9.6460069071 28.4971971311 22.6887041001
H 21.8793826678 18.3339811917 18.8494513795
H 25.7566590346 12.149914896 16.3492903246
O 8.3814992307 26.2662579579 20.4971699478
H 24.0193928511 22.4943044391 26.0331358921
H 11.7803431319 12.1394184168 15.5710028795
O 21.9285212898 20.4828072832 21.9443580877
H 22.1832784593 16.4158589649 9.4776376101
H 14.2619327559 19.4973409644 14.9614190496
H 22.7899281135 18.9599430995 15.3625515887
H 19.1236230853 25.9309173166 9.2826983785
H 19.5856403249 21.0952112387 17.5994604545
H 11.8142798273 24.2390160832 15.4330150064
H 14.7974616596 28.2030770382 10.4386425037
H 8.9460402619 25.5586203217 16.0607343854
H 21.3620532538 25.1534124911 19.7556195339
H 9.4287192751 14.573508197 20.9173699021
H 12.1204237911 13.4244717447 22.5056282415
O 14.6958656851 23.82484251 16.8928191804
H 13.6098557481 27.4158411017 9.9270121432
H 18.4375736969 24.6694810668 9.7622868797
H 9.0390004001 16.9306237966 13.0188365249
H 14.9335296085 27.2290912435 14.8150085402
O 12.2641640739 9.5117998023 22.705979465
H 9.9471549325 18.1482153783 18.94851592
O 8.0204713158 15.5865277735 18.355920727
O 12.3239369075 11.7849435688 21.4462397865
H 16.3714320302 26.4525704628 16.3665298485
H 19.4934652628 26.2227413047 15.5596054396
H 9.3366155834 16.3163610896 10.7220014971
H 13.8044832313 20.1242869171 26.7561565059
H 22.6804813789 20.9786565848 22.2683249409
H 26.7671589322 12.1503522493 18.7104599582
H 15.3801308099 11.1137155946 16.6788125337
H 8.8010509945 19.9503296428 11.5153421647
H 26.7913178626 15.1657939008 14.7159439996
O 12.1812671829 24.2296129873 20.946687845
H 15.5586999199 16.4181550697 24.9862559481
H 9.0727943544 23.0497431276 19.8021770007
H 15.665470259 14.9727024197 20.9797690935
O 10.0897889719 20.7896106217 21.6651566511
H 18.309071026 26.3825939352 25.888983366
H 10.7445423752 19.044680301 20.8876577081
H 9.6288422904 25.191134213 19.5363801003
H 19.0573912172 10.1267185393 21.2536660613
H 14.7986749589 15.4705198112 26.8962948394
O 11.8800121016 23.7313582426 9.4181773811
H 15.3335972129 16.3125342482 12.9132847623
O 12.5674532157 23.9394290741 14.9238935164
O 16.0306019803 16.8339687178 24.2647406565
H 13.5292783999 15.5834663004 26.0790840618
H 15.0472942613 20.7161352677 9.3894687353
O 23.9934853424 26.4038055701 11.19417091
H 22.4458150185 24.1589804297 20.1140295938
H 15.3550083771 19.5280650336 11.3902570538
H 10.1674758129 24.5150953526 17.2834861457
O 14.4935301828 27.9257950472 14.3280009508
O 15.6536584334 28.7176231933 11.9834973849
O 18.2549721509 13.2992793632 21.7704216857
O 20.472883287 9.8133549013 15.8712071457
H 17.282762552 15.4959956408 12.0904469468
O 21.9186721542 27.9226242358 22.1489027089
H 15.0309504059 16.4957852801 22.7881270507
O 18.0668750728 27.3575637748 12.0524913214
H 20.7759583172 25.6913570476 16.1635622315
O 14.2794899106 20.6783042074 22.4571712014
O 18.1548035874 21.3404571006 24.315133111
O 23.9655794583 23.949160185 21.3449531035
O 23.9127652531 9.264039159 25.5039075977
O 14.7845435905 12.0126952987 19.7226816494
H 11.8713405801 26.4636136336 24.614262147
H 23.9513767193 25.6116494091 10.6583837114
H 11.9282229065 23.1343709908 26.2514793006
H 10.207122152 12.0504170207 17.4898228172
H 23.8774011467 10.1753740937 25.7945423152
H 25.6578108262 15.8013775811 22.2432003957
H 15.3253182293 24.6329620664 19.8523902501
H 23.7987508033 18.3266555239 20.4168860944
H 23.008179248 23.9479574634 15.639530883
H 18.3515721871 12.3474892483 21.7384515083
H 9.0540239004 13.6218274205 16.0210225507
H 10.3891170483 28.4472295168 14.9357210483
O 14.4169139 15.844784896 14.437065132
O 20.3433814284 14.3227954189 16.3476057973
O 21.9307337767 20.2893877871 14.3555985254
O 18.2328829665 23.2048942101 22.2659952755
H 21.1998279991 12.9322306078 19.5479567452
H 9.9994338586 12.5017656242 19.7929300211
H 10.0200599469 28.3867654233 9.4520829728
O 24.1015046661 21.7426034581 13.4073888709
O 10.0088190856 16.2426670589 26.1303725414
H 20.8292364309 19.7020223079 23.3025171687
H 21.3458521395 19.8073151144 25.523691833
H 9.5150776376 21.3045941302 21.0987612334
H 20.1924327203 9.490150814 19.4816867251
H 10.5900251397 20.8581657512 10.4131595484
H 11.4833345983 27.0027609118 10.5969522272
H 20.724321726 16.3541921498 13.1562509419
H 24.0855533487 21.6991961433 23.7952234781
O 18.3844383242 22.6011279821 14.1701213194
O 10.0472878108 24.5026307836 16.333950374
H 16.7828475516 26.1944226787 20.9043954579
O 14.314854017 16.0702405211 26.3283940995
H 12.9592775218 21.1792924103 10.5641577067
H 21.3461019364 15.5340453777 15.1593330847
H 24.0711364981 13.8335064167 22.0705184288
H 18.9767424984 22.9365779617 21.7266239763
O 8.5555006256 14.4381473512 15.9837120635
O 15.9189427587 26.0070167905 15.6503190258
H 24.2062409446 13.7009883674 10.1139229894
O 8.7294306501 22.2705982272 15.819452733
H 10.4487471408 18.2010257891 16.7876975099
H 18.2766331121 21.537375423 12.6760173026
O 16.7323885745 20.70749754 18.3810094312
H 18.1292886167 14.0412492333 13.7816764964
O 10.0524978608 16.4285422105 14.5263092369
H 16.5132453082 15.50583609 18.9177284959
H 8.8707443342 16.8901686166 24.8526765188
H 21.5199962755 28.1372553668 10.8465489929
H 13.245794585 9.4417139363 13.5611467866
O 18.3516792429 23.0002128666 26.5844422462
H 16.4772031817 16.769021753 18.0841025375
H 12.196790277 14.7108371325 12.9035360087
O 9.631911224 20.4993173702 26.4143049908
H 23.9589419973 9.5052395028 23.5001086347
H 22.4847476522 28.6727944803 15.0577238327
H 19.9220810861 21.6337024869 19.8240041733
H 11.9844272127 13.5908846746 10.4081418076
O 10.2063727613 27.6825172752 14.3897550041
H 20.9064236781 28.7093134806 24.9955029277
H 13.9528269145 23.7099279309 16.3004031924
O 15.8446817039 19.2949557257 12.1790100726
H 26.2090412503 19.5690669053 14.6968407434
H 16.8105393241 13.9839559512 20.9248606723
H 17.5845885977 15.670608945 24.0739948227
H 18.2807369186 12.6599781798 9.7459075399
O 21.7123042159 20.1007791774 26.3578195654
H 14.5811732152 12.0719566706 18.7892026484
O 12.4793105895 9.9208344743 13.246283549
H 15.4778370895 13.3454201361 16.63913654
H 19.9509147874 15.4594766404 17.5731531561
H 26.1464849654 18.235030008 19.7758697023
H 24.070208681 14.7984171305 24.5217923515
O 12.4903730244 12.1460880546 26.8034666339
H 15.0640306547 28.5816063176 24.477170299
H 18.1939146475 22.5507230145 22.9636762981
O 24.0717074625 9.9372352229 10.8665841152
O 8.2356178315 26.1936573104 15.9698415942
O 12.3462045183 26.379860477 13.4153455742
O 20.2464245395 26.4852626219 16.0890487801
H 13.4716823681 27.5538260673 25.7856895867
H 14.0384358863 15.3929989391 22.4868833954
H 23.5843179932 12.5316149868 15.6780241234
O 23.9763920962 14.4560788364 25.4107209821
H 23.9892031095 22.5142040142 13.9626377357
O 25.8350952664 17.9113885675 15.8325347002
H 23.8702284067 24.9259887761 26.2259246633
H 22.3761930493 20.7460939686 26.1144949757
O 14.5044855618 20.266098724 14.4453802454
H 23.2364222591 15.0716536034 13.4178186036
O 11.7684599358 22.4506784476 25.6008933599
H 22.7621292853 20.6591700006 10.105285307
H 20.9529929604 14.817113984 20.6041553507
O 20.3569418324 26.4918229213 20.3772101008
H 18.1721823158 27.1133019578 23.5466302605
H 21.2863291028 28.1036885012 22.8443257481
O 24.0485120345 26.6135164765 25.3709733064
O 12.1455105385 14.6763955603 25.6422897218
O 16.1563568851 14.415842333 20.3755255735
H 18.6295247845 10.4860042736 10.775512119
H 19.2001679976 10.4936579564 9.3733044416
H 18.1832804359 25.0124753908 22.2312294997
H 25.9526425582 19.3220716302 21.7828943557
H 8.1704565215 15.1442542509 17.5203951953
O 20.2307943896 22.2259881908 20.5096784589
H 14.8538443921 18.1596959024 17.6465196954
H 15.4206692809 26.8077013408 20.6588487259
H 13.6981054302 27.5829100616 22.071844546
H 14.2622182381 18.4180623632 20.1832027354
O 22.9633228588 18.08676724 15.7144385855
H 24.7620390838 21.1854153564 25.8675862854
O 18.4412849653 25.8839018371 26.6952626368
O 19.5280799783 27.9973023115 18.2411936668
H 21.0721817748 16.4265741207 24.9432467409
H 23.901417336 11.4959623771 9.9686593922
H 16.481021506 21.4998723777 16.8695225265
H 19.6691438656 22.1098708901 15.2110516563
O 11.988638075 26.6541903332 22.6448705498
O 23.8466047555 23.8562226091 15.1868948183
H 26.2863712386 24.2449203528 18.6883102165
O 26.5199670408 16.1626314053 22.0372221342
O 14.7885046559 23.8848692502 19.5906075423
O 25.5217428773 18.177080696 20.4987827931
H 16.3793898463 27.2449453005 18.7281295742
H 12.4289943535 9.8392680842 11.6161629145
H 9.135564751 26.7014244894 20.8950409553
H 12.6812535538 24.6074862368 14.2478963024
O 12.1757716507 14.3182032092 22.8438956561
O 8.0457008044 20.5048936247 17.9008116329
O 9.924530469 28.1327724955 21.8485192377
H 8.0726075008 18.8787047244 12.2981097355
H 15.4682734361 25.274340678 16.0701605699
O 26.7242652332 12.2009758935 19.6653360398
H 20.7357766989 21.0684233492 15.4748414604
H 21.3463517333 16.0141499606 10.673508616
H 21.5615696195 27.4729157071 15.0691212726
H 25.696886201 24.4960704841 16.2536306796
H 15.7275983207 19.0728895887 18.4798230847
H 17.3560244191 27.982322961 11.9091272975
O 12.1338057687 14.5474856757 13.844577462
H 16.8292384076 9.8590583209 20.9539994102
H 22.0716192376 12.0969951469 17.5798912653
O 19.3572545727 20.5911615628 18.3804359751
H 24.7792393857 9.2568228296 22.2522323292
H 17.6515341713 20.4491310792 18.4489998195
H 16.5761584459 9.226645452 16.7305311053
H 22.5179349568 18.0767081141 16.5616482851
H 11.3417711172 27.2532550132 22.2722316105
H 26.9803427578 16.1781574474 22.8763317665
O 24.2216212976 14.5801778347 10.4922248077
H 18.3083216352 23.5553235401 14.1661788087
H 12.2190935731 14.6797850484 24.6879154143
H 24.3109058526 13.346404181 14.6291729241
O 16.0682856295 9.638741597 20.4167068894
H 18.5202207909 26.0047206857 13.4473515926
O 18.2734571227 25.5909844657 9.5617922922
O 18.3257003636 20.9597410547 11.9142884023
O 14.4317232886 27.9699677303 21.5940839362
H 25.6873582329 15.2681345725 13.6850849853
H 9.5493711857 11.4491655742 16.2659599857
O 9.797062671 20.3120208203 14.3378930684
O 20.6725423938 16.8103516397 24.1627371535
H 20.9609864617 10.6687086139 20.0405196905
H 13.0523090306 24.0991723662 20.5718626043
O 20.2724034189 16.4999401364 12.325098013
O 20.4093278144 28.907215848 24.20180385
H 18.7501766952 20.591926931 24.3535546694
H 10.7883638914 18.9494466203 15.5162736634
H 10.9199354958 24.4011648185 19.5072772034
O 18.4026378138 15.17563435 24.0289426781
O 12.3674729415 9.7616378738 10.6641182724
H 18.2702097628 22.1233195041 10.4799671836
H 12.328575993 10.3363201074 25.9677260562
H 9.2649238684 20.1981996245 13.5503944848
H 15.7026899996 9.3846393309 15.5041594033
H 18.574319666 28.0485819856 18.1783285423
H 8.2102456018 26.7653874093 19.6985248114
H 22.5903760626 20.8174918945 13.9058655822
O 24.04401569 10.0507284038 13.5728667955
H 19.9868855433 19.8702939893 18.3934462602
H 7.9894964982 22.5173748256 15.2645981193
O 8.9234157983 13.9658057894 20.3772817828
O 9.9119692526 15.9618862415 10.0441047098
O 8.4191115093 17.090804442 12.307285033
H 18.3967497437 21.8785109955 25.068941149
O 18.0742976098 27.5774431454 24.3779623945
H 16.5424715475 21.1400399518 19.2135243183
O 12.1283816071 26.6410697343 25.5190325022
H 15.6760331001 17.5553829829 12.1195140026
O 19.6307821963 16.0278172512 18.2737373002
O 21.7451346678 12.1765934471 19.3291115626
H 11.3574726376 15.0343692347 14.1212341872
H 12.5229179941 13.0194825908 14.5881349722
H 8.2694831563 18.9515240485 23.7607085893
O 13.7926714057 17.9574200021 16.1322730333
O 23.9247555051 21.6096480555 25.6798510961
O 24.3040185948 21.7617376649 22.8653644187
H 25.9487528634 17.132571682 15.2877155682
O 23.9861698612 9.6940667892 22.562113667
H 14.8369295724 15.2594968449 15.0674009043
O 20.0906583195 21.6201445347 15.9172269974
O 16.2670882897 21.8114866026 15.9900917626
H 21.5267407923 19.7681719942 13.6618600134
H 16.7518370487 19.5213953958 11.9739278363
H 9.1676458121 28.6584711597 13.072705557
O 26.2424069813 15.8002841979 14.2551361856
H 15.6996567513 10.4853482437 20.1642070022
H 9.9818410187 16.6641662998 9.3973895977
H 19.0243466536 26.0411303477 21.5055924924
O 18.3122113301 10.5031703906 21.7218212815
H 12.275654732 25.7349830391 10.3584661733
H 14.7259483709 15.9208843698 10.6646917285
O 18.5023067835 9.3050410307 12.2337751297
O 12.1922582472 21.665082586 10.8675159814
O 21.3550232548 23.9134065529 16.4093240096
O 11.1242693735 18.2818268109 16.1143525303
O 18.3725194428 10.8289985976 14.5355203754
H 23.2429526642 27.1038988619 25.5348742268
H 22.5224313013 12.2742325709 19.8791276405
H 17.3878913686 13.7157490412 15.0608420002
H 21.171779374 28.4091797799 13.0708059836
H 12.836127642 17.9243998281 16.1203379783
O 18.2152544412 13.5608166354 14.6051236091
H 18.4514909536 23.9502535682 26.5240501512
H 21.4931966349 11.2949985367 16.4335883707
H 8.4435202365 21.0054444743 17.1884357978
H 14.8023862274 27.3946294668 26.4898219904
H 15.2302169747 28.6336513601 12.8378036037
H 24.8875441917 17.9915335593 15.9418856095
H 24.0793441111 21.8761055523 11.4783900875
H 23.9713604726 11.5382763087 21.682862108
H 20.3022363077 18.5619515983 24.147683931
O 14.2551882392 28.0400535963 26.0424545537
H 13.0960948615 11.7415362539 20.8821740342
O 12.1547530245 12.219672747 9.3151703299
H 16.0989392796 14.7090877193 16.8546843501
H 19.8704801803 26.9834080283 19.7154059252
H 18.1319293269 14.386539662 11.5074571433
H 18.8654401295 13.9513731305 9.2145287851
O 21.9801935662 27.7610221922 10.0963250555
H 13.0627648158 9.0589204622 22.4351289827
O 26.4799638489 24.4938837177 16.8040768496
H 22.2868371238 28.518736781 9.5982425952
O 24.0443011722 14.6111205806 13.1908733537
H 13.4032736982 15.3727713491 10.1727022393
H 23.9981601132 23.5319251387 9.7961566303
H 12.3185484311 9.5436172547 23.6611064337
O 15.6924840113 16.5994380117 12.073565833
O 21.9931473206 12.0882480809 16.6259828908
O 20.2509565693 14.3173285026 20.1874678151
H 22.1609751632 16.7735046243 14.8565124251
O 9.8770690548 20.3037111076 10.0961100095
H 11.3467670555 15.1720261853 25.823143438
O 24.1146725321 26.2392513917 22.6721455554
O 16.0418428416 21.7932271024 20.809237587
O 14.2459457533 15.7064719155 9.8647921568
H 14.6639630504 21.1912102876 21.7463365296
O 15.8020734871 19.6993981881 24.5403221516
H 19.4765147577 15.9719453674 12.3889308447
H 9.5132933739 15.7577515897 14.9453622789
H 23.4176677646 14.9918366265 10.1753544737
H 20.9406815409 13.5902286447 16.4985681145
H 19.0508608121 20.3662526292 12.109550203
H 11.947314528 22.2049952325 23.8626404103
O 21.9882584381 16.0430152783 26.5760554508
H 21.4136898449 20.563608305 9.4237685781
H 14.915865398 28.4631929122 22.2562823629
O 12.2521024513 9.4847932361 25.5372397332
H 15.9439938209 17.772747572 24.4307920373
H 18.6776999041 15.9981865653 18.1901560743
H 11.9389641739 22.999666175 10.0324922238
H 19.847641605 16.3362606646 24.0576513239
H 12.4928353083 10.7433866895 13.7356566448
O 16.6844989371 27.6623990235 17.9226029645
O 24.0904065459 14.6706006291 22.5343727283
H 24.0151106183 14.5309755887 12.2374667534
H 24.8409392241 9.4417139363 10.5854472642
O 10.1444944966 16.0040908348 21.8371576388
H 12.2074958591 21.5674434623 11.8195964645
O 14.7070351758 11.7525794247 16.9136428049
H 9.5215723574 27.2087543151 14.861816894
O 8.3122341143 19.9040795316 23.8448632714
O 26.2432991131 24.1911258971 19.6430429341
H 24.9476025074 21.2587813722 10.4027656567
O 12.024608831 14.424589399 10.8766912789
O 18.1640460733 13.6098002048 9.7691683528
H 19.1086352703 22.5683264848 9.3005830405
O 26.4189063454 11.9651331276 17.0152878979
H 13.0169449243 21.1029742598 13.8696303251
H 11.243208391 14.8981336824 10.5913968712
H 11.998808378 18.3528967218 20.3974961102
H 10.4089223753 16.938824171 15.2534874074
H 22.0420361456 28.7650760261 21.7114990718
O 8.5386928617 22.3835447164 20.234742102
H 7.9217301633 28.2315050025 12.3261732432
O 13.8679673334 20.7553877262 26.0392647041
O 10.1326826709 12.1563658571 16.5413981167
H 18.2449802743 11.7740097363 14.4514015344
H 24.963839307 11.9686319539 20.623796222
H 24.2861759579 26.2353152121 12.9899486741
H 21.4120840076 24.0190273743 17.3589673043
H 11.0517925824 11.4463227778 20.0582968295
H 22.1088746634 16.8455585802 21.2244198004
O 22.2018348016 27.9302779185 14.5239795715
O 8.2772268607 19.8136567372 12.3047403216
O 21.8217152653 15.6513653999 9.926044436
H 8.3944886703 21.7176743201 19.5622931476
H 10.4886075916 16.7013413302 21.2788981295
O 18.3788000509 25.4699469405 14.2285421591
O 18.0203057905 14.9207667156 12.2938446558
H 12.2992070127 26.5089890383 12.4680677859
H 14.5504125092 20.4023342763 25.4684250017
H 9.5842356982 15.5137084494 26.582686037
O 18.2793808782 22.7390036093 9.7471261341
H 14.0995647602 11.7439416971 16.1739561233
O 11.0470107558 18.2581003945 20.4335880032
H 20.56452307 18.5031275797 12.1532045483
H 11.3292455861 14.7094157343 22.628025277
O 13.7842139958 18.3191111795 21.006578166
H 9.4262213059 20.8413276492 9.4450581356
H 12.8917609839 21.744243533 22.7728587822
H 15.6289999092 22.6185127757 20.5550531725
H 19.7814454222 27.3838049727 17.5515051885
H 19.5798593106 28.4434026754 24.3162441822
H 23.9677205747 26.3151321889 24.465056039
H 21.0012751358 23.0324676723 16.2866044051
H 23.3580019869 26.7858336759 22.4602176869
H 9.1607942395 20.1842043189 25.6429707009
O 21.3011384914 18.4631097529 18.0976504378
H 24.6692573719 23.9626087989 20.6961592131
O 18.3223459478 25.9561744696 22.1507306002
O 14.4867142955 20.1260363303 9.8932857566
O 12.2170238272 22.3956812704 22.9642139132
H 19.9004914955 14.90677141 19.5196423505
H 24.7298152815 9.5186881167 13.976364841
H 18.3593158915 14.7161947104 23.190263138
H 25.1200337503 21.2693871897 22.7768729749
H 20.8683831763 27.1549598595 20.8408493543
H 21.2439349975 19.6579589631 11.4485703705
O 12.3492020813 26.615703243 10.7261232128
H 12.531767942 21.8765429056 25.6637584844
H 7.7653572936 14.2144411393 15.4919017793
H 23.9088041877 24.6367889078 14.6363411253
H 14.0637010601 17.2943924023 15.4973137712
H 26.5847001274 25.0323749658 19.9464012088
H 20.7530483714 22.8798313713 20.0448922933
O 24.3143316389 26.2849548114 13.9454340528
H 12.3936659324 12.9216247903 26.2507624805
H 10.2154011356 16.8683009517 26.8247203504
H 18.9788836148 13.6318865463 21.239831433
H 18.5924834703 9.8885796685 12.9871530757
H 26.8295724761 11.1503439333 16.7258000925
H 14.0818648644 19.5601011627 9.2359617067
O 15.3004455935 18.2164424928 18.4912205246
H 17.4394565892 22.8707562904 26.8438594476
O 23.9799963089 24.2861409011 26.9293402469
O 24.0887650233 12.157677917 20.9626012516
H 9.6376208678 16.4617810612 22.5078503839
H 14.036580252 19.8471142645 22.0491930302
H 19.8508532797 10.1272652309 15.214886644
H 20.6933112231 17.7244200325 18.1327387827
O 15.7343428374 29.0047456334 23.9405945984
O 14.442072018 27.7975411926 9.6477748655
H 21.3482073675 21.1450695147 21.568887709
H 15.0307719796 12.9034746285 19.9717408
H 15.3042282325 19.9961424008 23.7785215693
O 21.8493713525 16.0154620205 21.6241545402
H 19.6803133563 13.9731314571 15.7523942108
H 12.2930334604 22.3942598722 14.1868232282
H 16.0582937528 28.3693806297 17.7666229065
H 17.2951096568 28.1206359415 24.2592569826
O 20.6835691434 28.6612046179 12.2869631826
H 10.2081213397 28.8923458359 21.3397203167
H 22.6670994012 19.254609884 20.8046140972
H 15.3750278157 23.2498322614 16.5403587275
O 21.8901239352 28.1938926189 26.5717903711
O 22.080397815 20.0334267695 9.8604553951
H 23.9869549373 12.6979185784 26.0662888226
H 11.4997855095 27.2957876214 25.823071756
H 13.6728759416 27.5310836958 14.0330294715
H 10.3692046656 20.9957133634 26.0590130984
H 12.9589563544 8.9609533234 25.9142512752
O 12.1982890585 21.5715983186 13.7067329529
H 16.5098195219 20.3379340032 24.6280250933
H 8.7057713135 14.4672313455 19.5914677265
O 16.3832795411 9.8276782218 16.010915387
H 10.7501449632 21.4131670864 21.9675472186
H 11.894393267 25.8506629864 22.1331685073
H 17.5918327083 10.5215392291 14.9961848254
H 10.5567307793 20.8145397597 14.0436742502
H 12.1487578985 11.4618488199 9.8999880247
O 8.3963799899 17.1582661883 24.0657155503
O 16.8219586117 15.8760556568 18.0907689646
O 21.8368101361 15.9650570529 14.4595374427
O 26.5365250078 20.3509452638 14.2521972231
H 23.5035622186 26.7331326035 14.1864289771
O 24.4042585288 12.5732728885 15.1858554291
H 9.1756036281 21.5789239863 15.3308322984
O 20.3115144789 19.5171312011 24.0860732417
H 16.9113502225 22.045470617 21.1199432679
O 9.4260785648 18.0954049676 18.1473260721
H 23.2195431246 26.9066525245 10.9404165876
O 16.096120143 26.2725995807 20.2421253492
H 15.5470665206 21.2490502613 15.7047256729
O 21.6969952335 24.2852661945 19.5313265184
O 18.4888891206 10.8538183973 9.9030345102
H 13.5749198651 15.4301739695 14.2487923275
H 23.204091401 14.9014138321 25.7592030833
O 12.5584605267 12.1629261566 15.0139978054
H 26.8707175968 20.4929757474 21.5037646011
O 24.1490017655 21.7710314225 10.5295352949
H 24.0879442621 23.1240931882 21.814577805
H 18.2824498117 10.0244872059 22.550178612
H 8.8187865756 20.1896712352 23.0845321703
