225
sI: 225 water molecules, lattice constant a = 12.03
H 9.9325610266 17.3929828133 19.1259028181
O 22.0556966933 19.8305071153 14.6287291913
O 15.8879090086 25.9204244119 20.1066639038
O 8.2814446898 25.8417875199 15.8869403138
H 22.8623847576 18.3857598653 15.4663949835
H 16.8963756998 13.417158585 20.9092961436
H 14.4985576182 11.3811540342 18.1876315092
H 8.8200066993 26.3737107084 21.2083299881
H 9.2990088323 13.281710103 16.2174044634
H 17.7199438007 22.0740165471 14.7363271483
H 20.7872063649 22.1749174406 20.1451580004
O 14.6333491525 15.7576206145 14.3100380278
H 16.4792078061 14.2713065834 16.6257486992
O 7.8706023677 15.2573934675 18.0777859822
H 22.6037115233 18.5371112055 20.7878560092
H 20.9386647142 19.5197981682 23.0266498388
H 15.0407443934 27.3786616727 22.8644680376
O 12.2816224551 11.4567200294 21.0617741502
H 15.5584106945 16.2089327631 12.880761851
H 22.7511542007 20.3814040588 14.2695104153
O 16.9697594378 15.0362889009 18.2774986357
O 10.8429458209 17.8425401637 15.7380655545
H 18.1703031769 22.031462692 22.6542667238
H 22.4896024759 17.6594927819 16.7413380164
H 7.7727692294 26.4935853569 20.1216833799
H 13.7499368798 26.6903420992 22.4747108494
O 15.8857057197 19.0628926005 12.2289308592
H 8.0016269886 27.1068873095 17.4225657975
O 16.0884793802 16.4260890339 12.1138766778
O 15.8473613839 18.9121993096 23.9483319401
H 10.628018534 23.677024655 19.884939334
H 13.8958870067 15.2693480299 13.9440765416
H 16.6911144549 14.5101784813 19.0270454114
O 12.4764713827 14.0260735423 13.1878227315
H 20.842963791 12.8827128742 15.7412050174
H 15.6125334223 20.8409418237 15.2665039514
H 18.8106784596 22.142344 21.2869235886
H 18.7073370988 20.2518780205 11.895291571
H 17.9707989129 21.1423284055 24.796664771
H 18.3488761955 14.4410833042 11.3234455326
H 14.7942958593 22.5596569345 16.2778391249
O 14.448983616 27.7564916488 14.3926629841
H 19.8540779423 20.4636602219 17.3696587119
O 14.4222598529 11.5525758782 16.3197224145
H 20.3687236052 18.294181337 23.7085197827
H 14.7622415582 24.4391554255 19.5733476377
H 19.7922792399 15.7781298178 23.8707015839
H 17.69169195 19.9370014279 18.2681872741
O 18.3800065367 14.9767354388 12.1160885721
O 14.6464622757 11.3229166706 19.1315395811
H 16.3544732199 20.7181059533 16.5804048653
H 14.2447529418 23.7884543374 18.3081440751
H 21.0552968828 16.3460263684 13.1347372673
O 18.1923360667 13.0727794485 14.3248434495
O 20.3566765896 13.706151905 15.782838577
O 23.0908516107 17.6228613706 15.9974280037
H 16.444523773 20.6788423448 18.6996136976
H 15.3587287458 19.2349724939 23.1911505614
H 16.4685111934 26.8796409494 18.792120827
H 15.0677879889 10.8496695452 16.2451601698
O 10.4128069517 11.7747771937 16.3382737864
H 18.3540290488 14.1375032246 23.3115204244
O 19.7753992033 15.1398219916 17.9698312681
O 16.1605127153 16.3164141496 24.1063396826
O 12.0480738225 25.8194138435 22.7828420013
O 14.5260987306 27.1098485314 22.1034693574
H 9.7406261263 11.0933671379 16.3392370307
H 18.819313931 15.1033002552 17.9981221103
O 16.7452016458 19.9712199917 18.1294800935
O 18.4032476818 14.6711812113 24.1045915725
H 15.4094043925 25.196570176 16.2400228668
H 20.748933103 19.850687294 11.8193379734
H 11.558765983 23.9381605543 15.8169445607
O 14.5308962146 19.9126536036 21.6210266612
H 20.0244063957 19.1680708145 18.1340822608
O 12.3598036772 13.8929282328 22.7487716933
H 12.0247971405 17.4701939317 20.458212401
H 10.6077269532 11.9209738143 17.2639515679
H 15.3482453547 22.4182860087 19.9747707848
H 9.3277581998 24.4524260865 19.8927879914
O 14.2165010911 23.716836638 19.2622554015
H 12.220996471 25.1394295613 22.1317245238
H 14.9229395065 27.0105927612 14.760408256
H 14.9894290822 17.6953564691 17.3744392577
O 16.218651115 21.309582604 15.8402408027
O 19.6000955812 20.0247413352 18.1815309619
O 20.2091983752 21.4759594034 20.451077258
H 20.0205684084 20.9601584228 19.6670677415
H 22.4195592083 16.205203817 21.2584186922
H 18.2080078481 21.5783957452 12.4271808084
O 7.7904666151 27.5081877109 18.2655472712
H 15.0640210755 12.1532652191 19.3606490239
H 18.8437988683 20.3422501251 23.8535058892
H 8.8840797645 16.6899668053 18.2902348661
H 19.0085124884 13.387765716 21.2948079217
O 18.0513255716 20.9313139283 11.7394957228
H 13.0448488673 11.4139468246 20.485647026
O 22.080003946 19.9600331535 21.7136408178
H 20.2741954003 18.6269349357 12.573522592
O 12.444701377 11.4990545347 14.4131051689
H 13.7772292337 23.617361518 15.9055630372
H 19.5851345383 13.5571037373 15.2362509449
H 12.3410401839 13.1468099954 22.1494196785
H 11.0186403491 18.4733900978 20.9810043311
H 16.6639287117 19.4115490575 23.9375578741
O 15.7864866414 25.9993903286 15.8801262522
O 16.7781443698 27.3954419299 18.0475686515
O 10.414015207 15.5090973268 14.1695827371
H 10.985271182 11.4058308831 19.4867270013
H 20.0094808897 14.678090729 17.1647017283
H 16.1106899547 26.4758180257 16.6443714225
H 14.0676369368 19.4886505011 14.8844883934
O 13.7917638336 17.4981610272 20.5584254849
H 14.0347652866 17.3181845422 15.2760293673
H 11.785527064 14.6221565381 13.4767960243
H 12.3246221272 13.9200179292 12.2487308811
H 11.4957590254 14.2948866835 22.6586548368
H 14.4082227698 19.0494025898 21.2262748729
O 9.8073999974 23.5854461267 16.7140460943
H 11.2267445475 26.8167972407 13.7277033291
H 16.6847533464 25.8049367588 20.6243185308
H 21.7306760309 17.6786858867 18.9786334659
H 16.6156695756 19.6567820986 12.0538344492
H 9.5417259899 15.9328810795 22.7900841715
O 21.2378144995 17.5910556542 18.1627655358
O 12.1630357559 23.6186776166 21.0148605848
H 15.484351755 13.2585687024 16.1000670362
O 20.4516667744 21.5456029549 16.0412021062
H 16.538554461 15.8814435588 18.4039333703
O 20.3421419897 19.2508753521 23.7252516932
H 15.0492377171 20.3985133407 20.979505951
O 13.7916572229 18.0219682743 15.8775576008
H 12.1755092145 22.8078511975 21.5233822288
H 12.4789234301 12.3571508289 13.990490647
H 9.7729291858 15.0125991259 14.678247084
O 20.5043680255 16.4173150431 23.846513449
O 10.0960308546 15.4685176197 22.1629764503
H 12.0438804661 24.7822184634 14.6576265206
H 13.5831265814 27.4089319407 14.1788940988
H 9.8887795422 28.3579487139 14.6617292279
H 19.7492084939 21.8245061855 15.4538728074
H 18.2044541561 13.5669744769 13.5051582179
H 20.4213893193 14.2005662831 19.3132359985
O 14.6791207044 15.1993754538 21.9188118557
O 20.6164159315 13.7132807724 20.1136920197
H 21.0450267132 14.3509305494 20.6844677866
H 17.5987629065 15.5274130325 12.0644658123
H 21.5033108223 20.5802446239 21.2674089724
H 21.4286122183 19.7375028134 13.9115402893
H 16.1181171708 17.2712436918 24.1596748767
O 18.433454063 22.4272793492 14.2050087223
H 15.9569572425 18.4991636956 18.2168142442
H 16.3134636153 17.3490031847 12.2311427535
H 15.2182868414 15.3860421067 22.6873737875
H 9.3127971569 22.7939224872 16.5017399133
H 15.2714856094 26.3415759674 20.7057661886
O 8.9108390646 13.8153880897 20.2471191944
O 12.0700356386 26.4003617053 13.5497885375
H 11.8077376384 11.6046714482 15.1197340592
H 10.46323384 17.8936486598 16.615260039
O 8.6600194893 13.9297789939 15.920867919
O 16.0825091778 13.9497398228 15.816159695
H 12.3536202532 10.6780283514 21.6137131396
H 18.2705883627 12.2680948229 21.9975124833
H 10.6336689041 16.2570800373 14.7249822709
O 18.1444678367 22.5427670023 21.845498261
H 17.7146132628 15.327037019 23.9956022627
H 13.8436121986 14.9012791184 22.2784587403
O 15.4265687245 17.7023756617 18.2259472273
O 17.9660014288 20.7138286329 23.9407330128
H 22.8282337783 20.4871306472 21.9939805875
H 15.0558475841 15.1414671149 14.9084267982
H 12.8496801074 17.9120740403 16.0073458525
O 11.0851299248 17.6075068868 20.5782611826
H 23.7443044797 17.7278202348 20.2082683406
H 16.4317660191 28.2740474275 18.2035785539
O 10.1517172069 11.5618982434 19.0428497532
O 20.2570666052 19.5837386258 12.5958555897
O 22.0895633772 15.3834099095 21.6214904455
H 20.9277193431 20.8787796587 15.5462729097
H 15.6443745018 16.0111889468 24.8524615896
H 14.1542759457 17.4133823417 19.6765931574
H 7.942102649 13.410578092 15.5585453557
H 9.7575416998 23.6510317074 17.6676936364
H 13.8881399583 11.4727325625 15.5293982964
H 8.6267213961 14.3349180163 19.4950751187
H 17.3754133697 13.3335863232 14.7502050015
H 12.0492110039 26.2068952095 12.6125518244
O 15.8987122321 21.6446393753 20.0960325407
O 9.8918001803 27.3674748345 22.103897466
H 18.2930121586 23.3741026247 14.2136779211
H 10.2034234242 28.1965072844 21.7410040913
H 8.6090950842 25.0636442163 16.3379170293
H 12.865671721 23.5107575305 20.3738393347
H 16.5488601676 21.912136418 20.7456516381
O 9.8175990932 23.8009572742 19.3908663547
H 9.279356916 26.9824063159 14.8298331977
H 14.0288661581 16.6799863909 20.9950962386
H 15.5306208237 14.0611695052 20.7998787252
H 20.9685868001 16.2907502267 24.6740116623
H 14.7316087339 19.8690029996 13.5782220825
H 20.7827997869 16.7530298638 18.2461396821
H 22.2089318886 16.0864259174 15.0712150866
O 9.479749603 17.4391559395 18.283848913
H 10.4858353205 18.6018193872 15.2774207202
H 10.5646206703 16.1614435382 21.6976937731
H 21.6570435345 15.6376362911 22.436680537
O 20.4897623517 16.8017255124 12.511268469
H 9.3554059229 27.620823817 22.8551210002
O 9.66560769 27.5643412517 14.1753265273
H 15.3107183681 19.1589677991 11.4697159647
H 11.3026514068 26.3053832556 22.4301518812
O 14.5513654801 23.469519774 16.448797152
O 12.2139246241 23.9613019549 15.1194843292
H 8.2143865234 14.7545341233 17.3394057054
O 22.7925547115 17.7294653581 20.3101938588
H 9.237174593 14.4602764089 20.8747620513
O 18.2965303136 13.2211695669 21.9125329298
O 8.2238393439 25.8523163088 20.6707326363
O 21.9818154384 15.371565022 14.4765009147
O 16.1539383853 13.5210207004 20.3141181875
H 21.4415831938 14.7831592681 15.0038593363
H 19.719286408 16.2395320558 12.4307840556
O 14.3308233599 20.2459555767 14.3615537605
H 9.7102775974 12.2162186027 19.5844071094
