25
Dummy Molecule
O      -0.000000     -0.000000     -3.006068
O      -0.000000     -0.000000      3.006069
O       0.000000      2.320779      1.421994
O       0.000000      2.320779     -1.422006
O       0.000000     -2.320779      1.421994
O       0.000000     -2.320779     -1.422006
O       0.000000      0.020760      0.065620
O       0.000000     -0.603810      0.962370
O       0.000000      0.699900      0.131110
O       0.000000     -0.632560     -0.803270
O       0.000000      0.599340     -0.183010
O       0.000000      1.397780     -0.928490
O       0.000000      1.075760      0.783520
O       0.000000     -0.356350     -0.538880
O       0.000000      0.046160     -0.213510
O       0.000000     -1.336070     -0.065870
O       0.000000     -0.508520     -1.618720
O       0.000000     -3.504321     -2.734934
O       0.000000      3.392880      3.249573
O       0.000000     -2.930413      2.498203
O       0.000000      3.104859     -1.618720
O       0.000000     -3.233244      0.034872
O       0.000000      0.580204      2.849573
O       0.000000     -0.392498      1.748903
O       0.000000      3.104859     -0.028482